data_image0
_chemical_formula_structural       Al2O3Al2O3Al2O3Al2O3Al2O3Al2O3Al2O3Al2O3Al2O3Al2O3Al2O3Al2O3Al2O3Al2O3Al2O3Al2O3Al2O3Al2O3Al2O3Al2O3Al2O3Al2O3Al2O3Al2O3Al2O3Al2O3Al2O3Al2O3Al2O3Al2O3Al2O3Al2O3Al2O3Al2O3Al2O3Al2O3Al2O3Al2O3Al2O3Al2O3Al2O3Al2O3Al2O3Al2O3Al2O3Al2O3Al2O3Al2O3Al2O3Al2O3Al2O3Al2O3Al2O3Al2O3Al2O3Al2O3Al2O3Al2O3Al2O3Al2O3Al2O3Al2O3Al2O3Al2O3Al2O3Al2O3Al2O3Al2O3Al2O3Al2O3Al2O3Al2O3Al2O3Al2O3Al2O3Al2O3Al2O3Al2O3Al2O3Al2O3SiO2SiO2SiO2SiO2SiO2SiO2SiO2SiO2SiO2SiO2SiO2SiO2SiO2SiO2SiO2SiO2SiO2SiO2SiO2SiO2SiO2SiO2SiO2SiO2SiO2SiO2SiO2SiO2SiO2SiO2SiO2SiO2SiO2SiO2SiO2SiO2SiO2SiO2SiO2SiO2SiO2SiO2SiO2SiO2SiO2SiO2SiO2SiO2SiO2SiO2SiO2SiO2SiO2SiO2SiO2SiO2SiO2SiO2SiO2SiO2SiO2SiO2SiO2SiO2SiO2SiO2SiO2SiO2SiO2SiO2SiO2SiO2SiO2SiO2SiO2SiO2SiO2SiO2SiO2SiO2SiO2SiO2SiO2SiO2SiO2SiO2SiO2SiO2SiO2SiO2SiO2SiO2SiO2SiO2SiO2SiO2SiO2SiO2SiO2SiO2SiO2SiO2SiO2SiO2SiO2SiO2SiO2SiO2SiO2SiO2SiO2SiO2SiO2SiO2SiO2SiO2SiO2SiO2SiO2SiO2SiO2SiO2SiO2SiO2SiO2SiO2SiO2SiO2SiO2SiO2SiO2SiO2SiO2SiO2SiO2SiO2SiO2SiO2SiO2SiO2SiO2SiO2SiO2SiO2SiO2SiO2SiO2SiO2SiO2SiO2SiO2SiO2SiO2SiO2SiO2SiO2SiO2SiO2SiO2SiO2SiO2SiO2SiO2SiO2SiO2SiO2SiO2SiO2SiO2SiO2SiO2SiO2SiO2SiO2SiO2SiO2SiO2SiO2SiO2SiO2SiO2SiO2SiO2SiO2SiO2SiO2SiO2SiO2SiO2SiO2SiO2SiO2SiO2SiO2SiO2SiO2SiO2SiO2SiO2SiO2SiO2SiO2SiO2SiO2SiO2SiO2SiO2SiO2SiO2SiO2SiO2SiO2SiO2SiO2SiO2SiO2SiO2SiO2SiO2SiO2SiO2SiO2SiO2SiO2SiO2SiO2SiO2SiO2SiO2SiO2SiO2SiO2SiO2SiO2SiO2SiO2SiO2SiO2SiO2SiO2SiO2SiO2SiO2SiO2SiO2SiO2SiO2SiO2SiO2SiO2SiO2SiO2SiO2SiO2SiO2SiO2SiO2SiO2SiO2SiO2SiO2SiO2SiO2SiO2SiO2SiO2SiO2SiO2SiO2SiO2SiO2SiO2SiO2SiO2SiO2SiO2SiO2SiO2SiO2SiO2SiO2SiO2SiO2SiO2SiO2SiO2SiO2SiO2SiO2SiO2SiO2SiO2SiO2SiO2SiO2SiO2SiO2SiO2SiO2SiO2SiO2SiO2SiO2SiO2SiO2SiO2SiO2SiO2SiO2SiO2SiO2SiO2SiO2SiO2SiO2SiO2SiO2SiO2SiO2SiO2SiO2SiO2SiO2SiO2SiO2SiO2SiO2SiO2SiO2SiO2SiO2SiO2SiO2SiO2SiO2SiO2SiO2SiO2SiO2SiO2SiO2SiO2SiO2SiO2SiO2SiO2SiO2SiO2SiO2SiO2SiO2SiO2SiO2SiO2SiO2SiO2SiO2SiO2SiO2SiO2SiO2SiO2SiO2SiO2SiO2SiO2SiO2SiO2SiO2SiO2SiO2SiO2SiO2SiO2SiO2SiO2SiO2SiO2SiO2SiO2SiO2SiO2SiO2SiO2SiO2SiO2SiO2SiO2SiO2SiO2SiO2SiO2SiO2SiO2SiO2SiO2SiO2SiO2SiO2SiO2SiO2SiO2SiO2SiO2SiO2SiO2SiO2SiO2SiO2SiO2SiO2SiO2SiO2SiO2SiO2SiO2SiO2SiO2SiO2SiO2SiO2SiO2SiO2SiO2SiO2SiO2SiO2SiO2SiO2SiO2SiO2SiO2SiO2SiO2SiO2SiO2SiO2SiO2SiO2SiO2SiO2SiO2SiO2SiO2SiO2SiO2SiO2SiO2SiO2SiO2SiO2SiO2SiO2SiO2SiO2SiO2SiO2SiO2SiO2SiO2SiO2SiO2SiO2SiO2SiO2SiO2SiO2SiO2SiO2SiO2SiO2SiO2SiO2SiO2SiO2SiO2SiO2SiO2SiO2SiO2SiO2SiO2SiO2SiO2SiO2SiO2SiO2SiO2SiO2SiO2SiO2SiO2SiO2SiO2SiO2SiO2SiO2SiO2SiO2SiO2SiO2SiO2SiO2SiO2SiO2SiO2SiO2SiO2SiO2SiO2SiO2SiO2SiO2SiO2SiO2SiO2SiO2SiO2SiO2SiO2SiO2SiO2SiO2SiO2SiO2SiO2SiO2SiO2SiO2SiO2SiO2SiO2SiO2SiO2SiO2SiO2SiO2SiO2SiO2SiO2SiO2SiO2SiO2SiO2SiO2SiO2SiO2SiO2SiO2SiO2SiO2SiO2SiO2SiO2SiO2SiO2SiO2SiO2SiO2SiO2SiO2SiO2SiO2SiO2SiO2SiO2SiO2SiO2SiO2SiO2SiO2SiO2SiO2SiO2SiO2SiO2SiO2SiO2SiO2SiO2SiO2SiO2SiO2SiO2SiO2SiO2SiO2SiO2SiO2SiO2SiO2SiO2SiO2SiO2SiO2SiO2SiO2SiO2SiO2SiO2SiO2SiO2SiO2SiO2SiO2SiO2SiO2SiO2SiO2SiO2SiO2SiO2SiO2SiO2SiO2SiO2SiO2SiO2SiO2SiO2SiO2SiO2SiO2SiO2SiO2SiO2SiO2SiO2SiO2SiO2SiO2SiO2SiO2SiO2SiO2SiO2SiO2SiO2SiO2SiO2SiO2SiO2SiO2SiO2SiO2SiO2SiO2SiO2SiO2SiO2SiO2SiO2SiO2SiO2SiO2SiO2SiO2SiO2SiO2SiO2SiO2SiO2SiO2SiO2SiO2SiO2SiO2SiO2SiO2SiO2SiO2SiO2SiO2SiO2SiO2SiO2SiO2SiO2SiO2SiO2SiO2SiO2SiO2SiO2SiO2SiO2SiO2SiO2SiO2SiO2SiO2SiO2SiO2SiO2SiO2SiO2SiO2SiO2SiO2SiO2SiO2SiO2SiO2SiO2SiO2SiO2SiO2SiO2SiO2SiO2SiO2SiO2SiO2SiO2SiO2SiO2SiO2SiO2SiO2SiO2SiO2SiO2SiO2SiO2SiO2SiO2SiO2SiO2SiO2SiO2SiO2SiO2SiO2SiO2SiO2SiO2SiO2SiO2SiO2SiO2SiO2SiO2SiO2SiO2SiO2SiO2SiO2SiO2SiO2SiO2SiO2SiO2SiO2SiO2SiO2SiO2SiO2SiO2SiO2SiO2SiO2SiO2SiO2SiO2SiO2SiO2SiO2SiO2SiO2SiO2SiO2SiO2SiO2SiO2SiO2SiO2SiO2SiO2SiO2SiO2SiO2SiO2SiO2SiO2SiO2SiO2SiO2SiO2SiO2SiO2SiO2SiO2SiO2SiO2SiO2SiO2SiO2SiO2SiO2SiO2SiO2SiO2SiO2SiO2SiO2SiO2SiO2SiO2SiO2SiO2SiO2SiO2SiO2SiO2SiO2SiO2SiO2SiO2SiO2SiO2SiO2SiO2SiO2SiO2SiO2SiO2SiO2SiO2SiO2SiO2SiO2SiO2SiO2SiO2SiO2SiO2SiO2SiO2SiO2SiO2SiO2SiO2SiO2SiO2SiO2SiO2SiO2SiO2SiO2SiO2SiO2SiO2SiO2SiO2SiO2SiO2SiO2SiO2SiO2SiO2SiO2SiO2SiO2SiO2SiO2SiO2SiO2SiO2SiO2SiO2SiO2SiO2SiO2SiO2SiO2SiO2SiO2SiO2SiO2SiO2SiO2SiO2SiO2SiO2SiO2SiO2SiO2SiO2SiO2SiO2SiO2SiO2SiO2SiO2SiO2SiO2SiO2SiO2SiO2SiO2SiO2SiO2SiO2SiO2SiO2SiO2SiO2SiO2SiO2SiO2SiO2SiO2SiO2SiO2SiO2SiO2SiO2SiO2SiO2SiO2SiO2SiO2SiO2SiO2SiO2SiO2SiO2SiO2SiO2SiO2SiO2SiO2SiO2SiO2SiO2SiO2SiO2SiO2SiO2SiO2SiO2SiO2SiO2SiO2SiO2
_chemical_formula_sum              "Al160 O2130 Si945"
_cell_length_a       51.97986375086468
_cell_length_b       51.97986375086539
_cell_length_c       25.98993187543231
_cell_angle_alpha    90.0
_cell_angle_beta     90.0
_cell_angle_gamma    60.0000000000012

_space_group_name_H-M_alt    "P 1"
_space_group_IT_number       1

loop_
  _space_group_symop_operation_xyz
  'x, y, z'

loop_
  _atom_site_type_symbol
  _atom_site_label
  _atom_site_symmetry_multiplicity
  _atom_site_fract_x
  _atom_site_fract_y
  _atom_site_fract_z
  _atom_site_occupancy
  Al  Al1       1.0  0.45751130521259725  0.164804944601677  0.2975290803768802  1.0000
  Al  Al2       1.0  0.7971704986600906  0.5109986421385525  0.7287507975390708  1.0000
  O   O1        1.0  0.2789630596715393  0.39611359989009753  0.498875560007808  1.0000
  O   O2        1.0  0.9960399400493947  0.48575672911539397  0.5038506297991271  1.0000
  O   O3        1.0  0.8103906080581914  0.04306228433074664  0.12891574353092208  1.0000
  Al  Al3       1.0  0.29819574891251815  0.15216520139702083  0.8828238995692332  1.0000
  Al  Al4       1.0  0.25352366853294794  0.8056217997691157  0.6055141574174331  1.0000
  O   O4        1.0  0.8927285613561461  0.2916867925824217  0.45954247017019784  1.0000
  O   O5        1.0  0.6069523567017613  0.7218848190661954  0.9633766057379618  1.0000
  O   O6        1.0  0.5425879890260887  0.7657315479040038  0.27554375188994107  1.0000
  Al  Al5       1.0  0.04548312247314339  0.7241113317870916  0.29838767637078933  1.0000
  Al  Al6       1.0  0.0014952029946741806  0.9376251608821753  0.5056360088240874  1.0000
  O   O7        1.0  0.33398982170104763  0.15162905259578363  0.506473642976844  1.0000
  O   O8        1.0  0.033111135664454734  0.04811808285724544  0.3693856422376744  1.0000
  O   O9        1.0  0.23104773313647992  0.9533105736571018  0.40495377810222405  1.0000
  Al  Al7       1.0  0.10304084522511578  0.48255503467541305  0.39895831965465356  1.0000
  Al  Al8       1.0  0.8809872861216647  0.667895636905753  0.7838611836470636  1.0000
  O   O10       1.0  0.9497715363773388  0.4642700737423841  0.8452795557383698  1.0000
  O   O11       1.0  0.4128325164474544  0.2598831555857011  0.4676378391613755  1.0000
  O   O12       1.0  0.8160261505269688  0.4367894224167831  0.3006209132156564  1.0000
  Al  Al9       1.0  0.8687179338971422  0.7498828131976687  0.11853948452474364  1.0000
  Al  Al10      1.0  0.9547086611388234  0.8654640183834522  0.98901332386695  1.0000
  O   O13       1.0  0.2705155831287378  0.32663507766735483  0.7473096521537889  1.0000
  O   O14       1.0  0.1060886491609508  0.09146833053374505  0.6717149023709623  1.0000
  O   O15       1.0  0.5477746891929689  0.18186432247365983  0.8593966958233169  1.0000
  Al  Al11      1.0  0.8034111114610953  0.9603707025821978  0.3808682870671572  1.0000
  Al  Al12      1.0  0.1685391404846846  0.684999016270096  0.10593948872524453  1.0000
  O   O16       1.0  0.8293797737704617  0.7933978502124005  0.34896437260901225  1.0000
  O   O17       1.0  0.6330530882763022  0.7481875348361403  0.7136524553246059  1.0000
  O   O18       1.0  0.5179611389948817  0.09918525778220373  0.500868587984044  1.0000
  Al  Al13      1.0  0.26929397721691106  0.3838070271132423  0.1329121084006817  1.0000
  Al  Al14      1.0  0.9623074996355634  0.30232262905553314  0.09145802367205083  1.0000
  O   O19       1.0  0.971428515459391  0.5729586248360311  0.4012759010906061  1.0000
  O   O20       1.0  0.5475137166628777  0.03733448669296724  0.8779954256678647  1.0000
  O   O21       1.0  0.8978339692037225  0.5170542468980218  0.27488258784638175  1.0000
  Al  Al15      1.0  0.6617434857976433  0.7663530877961753  0.6113308634654802  1.0000
  Al  Al16      1.0  0.0696690866140891  0.836936909896688  0.8431364821738808  1.0000
  O   O22       1.0  0.37542361948289293  0.0018278223020576564  0.7619212896706833  1.0000
  O   O23       1.0  0.7799010187131845  0.14141082372881317  0.7689198512218367  1.0000
  O   O24       1.0  0.966990427990208  0.2826806880086134  0.26005962300426844  1.0000
  Al  Al17      1.0  0.9232447061046448  0.11020756492650058  0.5139618654113509  1.0000
  Al  Al18      1.0  0.9512798813958022  0.3898515675501296  0.7854745297696223  1.0000
  O   O25       1.0  0.21568035579296485  0.47871372937420725  0.08080973984633369  1.0000
  O   O26       1.0  0.3059048254195803  0.3713631834509123  0.15591205597723062  1.0000
  O   O27       1.0  0.07324985066207787  0.0786415445320692  0.07948653768119443  1.0000
  Al  Al19      1.0  0.2653457758667867  0.9831360588827219  0.29057644646056136  1.0000
  Al  Al20      1.0  0.20564413694054826  0.02926348000047612  0.461946478646617  1.0000
  O   O28       1.0  0.9048410263454981  0.3095859588122053  0.9601703938286507  1.0000
  O   O29       1.0  0.6443489492090652  0.11944104237311788  0.13745946464414097  1.0000
  O   O30       1.0  0.39303166462256345  0.8381070519968583  0.027259899950135943  1.0000
  Al  Al21      1.0  0.4053228598019224  0.9197694242084261  0.24734032289304198  1.0000
  Al  Al22      1.0  0.49259898696490867  0.10386292115802341  0.9482804467185414  1.0000
  O   O31       1.0  0.92074127480395  0.06632328197956179  0.4295331084988058  1.0000
  O   O32       1.0  0.8319880196081486  0.07254844541158631  0.24783967878262803  1.0000
  O   O33       1.0  0.7943159410710482  0.3421057848461839  0.8989138549721573  1.0000
  Al  Al23      1.0  0.2898961732449869  0.27099028468658015  0.8876779682472834  1.0000
  Al  Al24      1.0  0.940147809586333  0.17064056962109214  0.16842743343354627  1.0000
  O   O34       1.0  0.5535518600530291  0.1600685423270238  0.7734162696112123  1.0000
  O   O35       1.0  0.20926292483231015  0.09290120013143822  0.023101740525811522  1.0000
  O   O36       1.0  0.10548235534427008  0.4252522413916711  0.7875881125776596  1.0000
  Al  Al25      1.0  0.601193499351143  0.878554916788678  0.14963306953093028  1.0000
  Al  Al26      1.0  0.251803029802383  0.20719578972953284  0.30906376757805254  1.0000
  O   O37       1.0  0.1067599978217102  0.36071000436262474  0.2303177701988499  1.0000
  O   O38       1.0  0.1622342398429968  0.7567801396238543  0.4489362346129359  1.0000
  O   O39       1.0  0.9597163498990828  0.8897390693575199  0.9474293038050073  1.0000
  Al  Al27      1.0  0.36143968008072563  0.32115490183991674  0.28662833879764593  1.0000
  Al  Al28      1.0  0.8261590352830104  0.9329853737259792  0.4740064969345343  1.0000
  O   O40       1.0  0.4326455960991352  0.8719469724604303  0.3914677758371099  1.0000
  O   O41       1.0  0.9417046604667607  0.4086375320485646  0.9490441391218376  1.0000
  O   O42       1.0  0.5112046975773178  0.11567515882695663  0.9106616470006393  1.0000
  Al  Al29      1.0  0.7205349624150008  0.8610918461804219  0.7810340581416615  1.0000
  Al  Al30      1.0  0.2068742769172572  0.758876296460776  0.5233371658844462  1.0000
  O   O43       1.0  0.9186313433829628  0.854251510253484  0.8243340317323141  1.0000
  O   O44       1.0  0.7931862958271166  0.7327310596648341  0.13116644472348085  1.0000
  O   O45       1.0  0.6433176987325407  0.935419795195888  0.7180618311061309  1.0000
  Al  Al31      1.0  0.029071806816761553  0.3013894901119932  0.9705942661427801  1.0000
  Al  Al32      1.0  0.07713858351206325  0.25230277687821645  0.008146561361050348  1.0000
  O   O46       1.0  0.07674990513864482  0.5652443957337775  0.9469082373952246  1.0000
  O   O47       1.0  0.14350059419907263  0.34092430882264246  0.580983255588521  1.0000
  O   O48       1.0  0.7811159789230604  0.9666087860982184  0.002502624241230324  1.0000
  Al  Al33      1.0  0.18325923042435088  0.5943705749023134  0.8840175291940909  1.0000
  Al  Al34      1.0  0.6366724970274863  0.9411255221732474  0.6533021217056645  1.0000
  O   O49       1.0  0.8091214199191038  0.4729308109374329  0.7320992314983531  1.0000
  O   O50       1.0  0.9937235928677569  0.20467994090577882  0.13548589821754534  1.0000
  O   O51       1.0  0.7535064634982584  0.8824266575446954  0.35048692701956424  1.0000
  Al  Al35      1.0  0.923791917287825  0.4264355870118527  0.0008640336587329461  1.0000
  Al  Al36      1.0  0.5581761915754884  0.7256675254457743  0.25713421982350293  1.0000
  O   O52       1.0  0.11719758162114244  0.3091831472884383  0.7488523711804154  1.0000
  O   O53       1.0  0.465329815051147  0.03225002862016969  0.22691603028030374  1.0000
  O   O54       1.0  0.39508559842500923  0.961206234621115  0.6942636454847547  1.0000
  Al  Al37      1.0  0.8778795491020923  0.7636129777465176  0.9188075685463925  1.0000
  Al  Al38      1.0  0.04248792238674792  0.5048223000853496  0.463728742562574  1.0000
  O   O55       1.0  0.10080339191915974  0.891700257972495  0.11207333138582712  1.0000
  O   O56       1.0  0.46515651922154133  0.961044456517039  0.37636227137777833  1.0000
  O   O57       1.0  0.9968062727920703  0.09495808518188269  0.6184937896062591  1.0000
  Al  Al39      1.0  0.7652616723055905  0.02783335427364374  0.5385269387367443  1.0000
  Al  Al40      1.0  0.9529463240515692  0.00039637956021784226  0.05728881264731338  1.0000
  O   O58       1.0  0.9014707668493582  0.898980787951734  0.7627050373737807  1.0000
  O   O59       1.0  0.3994140483477157  0.298167348800717  0.2889217225357972  1.0000
  O   O60       1.0  0.7673030490410566  0.2592181044647249  0.7014665195077745  1.0000
  Al  Al41      1.0  0.46381409066942303  0.2420868469743635  0.7163134485711332  1.0000
  Al  Al42      1.0  0.9722696674429525  0.226539586953673  0.9585072531192328  1.0000
  O   O61       1.0  0.380148574051647  0.8710964299875948  0.18618989397146124  1.0000
  O   O62       1.0  0.3296946580962729  0.8891150999426621  0.4885030662047178  1.0000
  O   O63       1.0  0.19141086966635204  0.24193927022215792  0.410363021004223  1.0000
  Al  Al43      1.0  0.7072445510059  0.7261585578651041  0.27383878730747024  1.0000
  Al  Al44      1.0  0.8794827692223447  0.23293553200105716  0.5613950775053542  1.0000
  O   O64       1.0  0.5005395944245061  0.028640473844087976  0.15094358832005497  1.0000
  O   O65       1.0  0.14888883629857638  0.19250240143187014  0.9098890166371689  1.0000
  O   O66       1.0  0.2084647018632921  0.7118495273988009  0.21417392286750192  1.0000
  Al  Al45      1.0  0.7509612295814129  0.725290938385948  0.4033861634300306  1.0000
  Al  Al46      1.0  0.3996988235369124  0.24417506803097447  0.6748899923074687  1.0000
  O   O67       1.0  0.972767669766543  0.015512382253345683  0.36575970509661876  1.0000
  O   O68       1.0  0.05159023371087726  0.7768355579716695  0.15813948753289722  1.0000
  O   O69       1.0  0.3805770997295731  0.8917216280512579  0.8226792293812286  1.0000
  Al  Al47      1.0  0.8962672652975514  0.26355222391979055  0.5049402599807873  1.0000
  Al  Al48      1.0  0.1428989573114656  0.0742438342864318  0.6502814160153628  1.0000
  O   O70       1.0  0.9699056741848943  0.594825632393945  0.8070752510936874  1.0000
  O   O71       1.0  0.6155405145654815  0.9924222846752995  0.11651766913776633  1.0000
  O   O72       1.0  0.3621431660436657  0.32649721720876834  0.1346975706950245  1.0000
  Al  Al49      1.0  0.7416103084512561  0.9339308204223399  0.08713017838184213  1.0000
  Al  Al50      1.0  0.9994137208489716  0.7513445036522198  0.7452571167154125  1.0000
  O   O73       1.0  0.2490802331509395  0.3821924215589628  0.18442951377722364  1.0000
  O   O74       1.0  0.2460905641746778  0.847049929944342  0.8501482030257523  1.0000
  O   O75       1.0  0.48062011681504274  0.7898222380744557  0.26700769485678655  1.0000
  Al  Al51      1.0  0.937662596549855  0.29346585784375034  0.9956641415228956  1.0000
  Al  Al52      1.0  0.2094099185669354  0.33966655677089597  0.4726625767958797  1.0000
  O   O76       1.0  0.9287820072329462  0.7051876273795686  0.40957131276663267  1.0000
  O   O77       1.0  0.8676381166481316  0.447035618723946  0.7436582202566033  1.0000
  O   O78       1.0  0.9293401486234182  0.550022342474039  0.40135307155337124  1.0000
  Al  Al53      1.0  0.9958384129442863  0.2436893357114022  0.2360453842751966  1.0000
  Al  Al54      1.0  0.0013505331716526883  0.4772082400015271  0.013559020424868617  1.0000
  O   O79       1.0  0.8622746431796378  0.38905183849929725  0.8676339676376531  1.0000
  O   O80       1.0  0.26153282917585824  0.31549069646030786  0.35053897086799374  1.0000
  O   O81       1.0  0.35148341055361854  0.3147652071011386  0.7308728104803511  1.0000
  Al  Al55      1.0  0.22682097851130567  0.45132453353194013  0.24213489952962755  1.0000
  Al  Al56      1.0  0.07787578446194696  0.4759711754138198  0.31129891541174476  1.0000
  O   O82       1.0  0.37370813370116496  0.13788632827003658  0.9256366864031648  1.0000
  O   O83       1.0  0.8398489200986771  0.11380690059083705  0.3060458232696208  1.0000
  O   O84       1.0  0.5225808898791624  0.9333132565823979  0.5449609870640268  1.0000
  Al  Al57      1.0  0.3271293933395108  0.22480402380506567  0.6063479868858528  1.0000
  Al  Al58      1.0  0.31399010395255705  0.8863372071859674  0.36806644549095346  1.0000
  O   O85       1.0  0.8004674459330352  0.11823109015810437  0.8571603870288331  1.0000
  O   O86       1.0  0.9834619228395088  0.5146546423218805  0.37658221406282893  1.0000
  O   O87       1.0  0.9837126054995844  0.09426760524749786  0.39393796934077757  1.0000
  Al  Al59      1.0  0.6517895860125302  0.9272138112733734  0.9999386293306174  1.0000
  Al  Al60      1.0  0.09558085368679209  0.7859559280244292  0.9041704465333407  1.0000
  O   O88       1.0  0.13170647870815644  0.7611340053801128  0.5309781664931383  1.0000
  O   O89       1.0  0.9786917121531258  0.1385008979777756  0.4482055475855759  1.0000
  O   O90       1.0  0.9821322082391073  0.10953642176290353  0.7168870396476831  1.0000
  Al  Al61      1.0  0.22833516923854713  0.4228818086243885  0.6082805688195977  1.0000
  Al  Al62      1.0  0.5886000324734019  0.7153272860721159  0.9103831671344916  1.0000
  O   O91       1.0  0.5540399047771619  0.9417468419335238  0.29810931820099684  1.0000
  O   O92       1.0  0.6523051431587232  0.8407497574779718  0.01355124679759636  1.0000
  O   O93       1.0  0.41183368934310544  0.03628542107757109  0.24390546777264183  1.0000
  Al  Al63      1.0  0.6060382609725533  0.0430319588001296  0.7773347865470072  1.0000
  Al  Al64      1.0  0.13155909044494504  0.7621907087342267  0.19264239630116167  1.0000
  O   O94       1.0  0.73701191609134  0.6899020273477271  0.634196814380774  1.0000
  O   O95       1.0  0.6155160185939551  0.14695887805136995  0.045819075093810384  1.0000
  O   O96       1.0  0.2989740515872996  0.9020737540161065  0.3092237470194798  1.0000
  Al  Al65      1.0  0.724301885123916  0.7815401733905055  0.23732247850062785  1.0000
  Al  Al66      1.0  0.8024161723559603  0.8966192539295931  0.09782022703159775  1.0000
  O   O97       1.0  0.42324425134804644  0.16470371298372077  0.05907906646608856  1.0000
  O   O98       1.0  0.07560430398145687  0.9929270855129663  0.35742045245771  1.0000
  O   O99       1.0  0.38026542074858793  0.848834717152223  0.659552995472639  1.0000
  Al  Al67      1.0  0.9043566081928734  0.9544013608640081  0.9829778454287051  1.0000
  Al  Al68      1.0  0.7651259882654844  0.7176344936691944  0.5186091349870432  1.0000
  O   O100      1.0  0.3712314344849251  0.16943351004947457  0.08726110981220828  1.0000
  O   O101      1.0  0.8335662056971004  0.9835178200106262  0.030664204025529884  1.0000
  O   O102      1.0  0.920904605151934  0.012584181252535104  0.347739105358399  1.0000
  Al  Al69      1.0  0.9807734970347828  0.7507104934441696  0.6493471396820641  1.0000
  Al  Al70      1.0  0.5897332983558184  0.12337750896563257  0.540424521416775  1.0000
  O   O103      1.0  0.12201765889774255  0.9326511296004377  0.1015777522246682  1.0000
  O   O104      1.0  0.6393033736165654  0.9505286382875263  0.30926321466357054  1.0000
  O   O105      1.0  0.03251732531560737  0.4938251918986352  0.13782213747124566  1.0000
  Al  Al71      1.0  0.9172005559338178  0.669681610693276  0.8620298908209764  1.0000
  Al  Al72      1.0  0.007505399740763566  0.677226426720964  0.8378155552586376  1.0000
  O   O106      1.0  0.9105514466161342  0.7412414257980023  0.5708268097640835  1.0000
  O   O107      1.0  0.9034357386479172  0.36460590899720696  0.398510623817748  1.0000
  O   O108      1.0  0.16718694483404498  0.65134604351977  0.5818223645774829  1.0000
  Al  Al73      1.0  0.015532992256137503  0.9846489834898825  0.3823598979606953  1.0000
  Al  Al74      1.0  0.49818720002127154  0.7960740854661161  0.4092363294459622  1.0000
  O   O109      1.0  0.9624257623924537  0.8472220075162117  0.26205332649690494  1.0000
  O   O110      1.0  0.09998011342576013  0.131961935107874  0.9120797567111769  1.0000
  O   O111      1.0  0.9938184048754666  0.47482176880777577  0.16439617651335348  1.0000
  Al  Al75      1.0  0.25713683680719257  0.039445007492609124  0.3061482189271243  1.0000
  Al  Al76      1.0  0.8281914569147292  0.3522364288217254  0.04412937049408931  1.0000
  O   O112      1.0  0.7869821743181976  0.6009371802249545  0.4994805779605824  1.0000
  O   O113      1.0  0.5597673716889349  0.16710651834642995  0.3212653732437764  1.0000
  O   O114      1.0  0.319726756067693  0.2899661461072136  0.36985727684615666  1.0000
  Al  Al77      1.0  0.24795838765372116  0.12925825003725083  0.6737992578352264  1.0000
  Al  Al78      1.0  0.9001868893597099  0.1490002802045248  0.6380439743672855  1.0000
  O   O115      1.0  0.531426048100113  0.8634087646108755  0.017095573128299624  1.0000
  O   O116      1.0  0.4075255203380968  0.29545132329572693  0.7898126170831515  1.0000
  O   O117      1.0  0.0046715818856260735  0.13755340700503965  0.9701643782217669  1.0000
  Al  Al79      1.0  0.8162968034194144  0.8310536045560548  0.9121649573842194  1.0000
  Al  Al80      1.0  0.25358384212239954  0.18725000683941473  0.20035295633463002  1.0000
  O   O118      1.0  0.8545575882299565  0.5482013378189113  0.16576967244991547  1.0000
  O   O119      1.0  0.315169078811424  0.08591944167347992  0.3970194583591821  1.0000
  O   O120      1.0  0.4811159704017335  0.9138883679818612  0.2984984497499956  1.0000
  Al  Al81      1.0  0.7445686736707913  0.014517460419725783  0.2147625140207572  1.0000
  Al  Al82      1.0  0.8645011457680237  0.7048169298123587  0.06630804177003373  1.0000
  O   O121      1.0  0.3256582387478139  0.2859367491481887  0.777051751756998  1.0000
  O   O122      1.0  0.8597764920357021  0.8855710386506532  0.6178229451738572  1.0000
  O   O123      1.0  0.0007091029248960743  0.04651014943125692  0.5902294354960456  1.0000
  Al  Al83      1.0  0.12030617807183655  0.9454684646402739  0.9511396395074652  1.0000
  Al  Al84      1.0  0.0022379036780891936  0.3778818007164922  0.8404546100485423  1.0000
  O   O124      1.0  0.008561839236984751  0.16945329345130558  0.24607861095813502  1.0000
  O   O125      1.0  0.88342653622908  0.43663111513224445  0.48500089153483783  1.0000
  O   O126      1.0  0.628667576767504  0.8751066353516488  0.6597249443039404  1.0000
  Al  Al85      1.0  0.29019093688858655  0.136148481188058  0.973408231208095  1.0000
  Al  Al86      1.0  0.7675571880996622  0.8317445572652895  0.6052965309384313  1.0000
  O   O127      1.0  0.03562765181090208  0.3178264952113192  0.25900047865224474  1.0000
  O   O128      1.0  0.5152413139788768  0.07106310423173023  0.4137176111797649  1.0000
  O   O129      1.0  0.749025899790064  0.5483139819403955  0.45155759511813237  1.0000
  Al  Al87      1.0  0.37571824657021136  0.8636734908473689  0.5971839607134081  1.0000
  Al  Al88      1.0  0.34881666871718486  0.9437214435463898  0.2599128597067632  1.0000
  O   O130      1.0  0.8361834060847946  0.0997921561035695  0.7837023142125327  1.0000
  O   O131      1.0  0.5981186589750994  0.8322435918094397  0.5779468549478483  1.0000
  O   O132      1.0  0.02332479874818002  0.2996574352516894  0.5548566376018882  1.0000
  Al  Al89      1.0  0.9578916637769513  0.3143078181692186  0.3056631039779949  1.0000
  Al  Al90      1.0  0.36443251409970595  0.8818863322968743  0.2499404925412103  1.0000
  O   O133      1.0  0.14352477980654024  0.580437221147384  0.029063518099142368  1.0000
  O   O134      1.0  0.9705174106370765  0.02093158964625316  0.5624949014793035  1.0000
  O   O135      1.0  0.5422829044083551  0.7882914483417667  0.5034441994802418  1.0000
  Al  Al91      1.0  0.16837039055764152  0.1055696223418985  0.38726204259145863  1.0000
  Al  Al92      1.0  0.9786380078860877  0.8920497659482418  0.06829840358854372  1.0000
  O   O136      1.0  0.5577266845988277  0.046362858527851575  0.4784040193019889  1.0000
  O   O137      1.0  0.9581658729601727  0.1388037243874229  0.13641804654281334  1.0000
  O   O138      1.0  0.873228255723246  0.5745843890353812  0.3772147560520535  1.0000
  Al  Al93      1.0  0.43182721443302335  0.9594653581521719  0.1720737411686699  1.0000
  Al  Al94      1.0  0.8050698352663166  0.7803252452159289  0.3509092481696336  1.0000
  O   O139      1.0  0.2149675141688081  0.7266957034360745  0.4878073397215043  1.0000
  O   O140      1.0  0.5350595999715012  0.12527579054527968  0.7422814531150436  1.0000
  O   O141      1.0  0.9993126441177693  0.7134829553037084  0.17274880504628554  1.0000
  Al  Al95      1.0  0.4710586991918531  0.9476640960352831  0.26463137546423254  1.0000
  Al  Al96      1.0  0.8682535916312075  0.22303927802561732  0.4606119193094388  1.0000
  O   O142      1.0  0.07371771346031106  0.8168460412074774  0.405360578615199  1.0000
  O   O143      1.0  0.64964468601148  0.9091257395543844  0.8080607109966317  1.0000
  O   O144      1.0  0.03580226850818198  0.911139942525056  0.04555256736275286  1.0000
  Al  Al97      1.0  0.9161282970421702  0.883944535288231  0.15517155563230722  1.0000
  Al  Al98      1.0  0.2107854553506021  0.749263328968348  0.8965271056196734  1.0000
  O   O145      1.0  0.23614591017330464  0.24204963269427532  0.34212267424835535  1.0000
  O   O146      1.0  0.8603029861243234  0.3336431634380669  0.6156375235400765  1.0000
  O   O147      1.0  0.9269689322310384  0.9084686243077617  0.6841249224985305  1.0000
  Al  Al99      1.0  0.33968545376454123  0.8799185291018939  0.16008096518948123  1.0000
  Al  Al100     1.0  0.7205600509143667  0.8606639399146517  0.50780406154939  1.0000
  O   O148      1.0  0.10611573662461116  0.4525228365248386  0.35725555221782385  1.0000
  O   O149      1.0  0.5253760529348058  0.17033565482953958  0.685499065971266  1.0000
  O   O150      1.0  0.007959673230058051  0.2988214284715599  0.9231956984340884  1.0000
  Al  Al101     1.0  0.4483199108562301  0.17313076035184946  0.682384118998681  1.0000
  Al  Al102     1.0  0.7080631582592064  0.1639341010424282  0.9827670593235536  1.0000
  O   O151      1.0  0.12796872857112226  0.5814756969857782  0.5195582374681968  1.0000
  O   O152      1.0  0.6415718640722292  0.8548794282420783  0.1520110399610635  1.0000
  O   O153      1.0  0.7782507018011086  0.6989415804306555  0.06377698536388203  1.0000
  Al  Al103     1.0  0.9317797467772237  0.9839118351791755  0.9515583126198871  1.0000
  Al  Al104     1.0  0.8012907972577542  0.6780034423421611  0.4171570310174642  1.0000
  O   O154      1.0  0.24042074494518131  0.15271480282817582  0.8146948728260541  1.0000
  O   O155      1.0  0.8500877508139276  0.2726746028084206  0.001564153916795932  1.0000
  O   O156      1.0  0.46716530476209034  0.2208746091985225  0.20375314382318227  1.0000
  Al  Al105     1.0  0.9635347929403545  0.9024969118288703  0.1823918682614767  1.0000
  Al  Al106     1.0  0.5068871550556346  0.958900712124228  0.014716111487950656  1.0000
  O   O157      1.0  0.05930291020566325  0.4885107775232738  0.6274769043957261  1.0000
  O   O158      1.0  0.4718791450420148  0.8506667665924722  0.625939463770965  1.0000
  O   O159      1.0  0.19464715208761824  0.8172874854958073  0.07180290771646307  1.0000
  Al  Al107     1.0  0.11081837367101499  0.5154384394248289  0.6027387021943407  1.0000
  Al  Al108     1.0  0.6339699205748452  0.11541345529812516  0.2819921010201236  1.0000
  O   O160      1.0  0.8417576751939638  0.24024809000469186  0.5837870185474442  1.0000
  O   O161      1.0  0.8184273650902613  0.9451675054813801  0.19096560738446944  1.0000
  O   O162      1.0  0.8097262241778851  0.8860716389772758  0.7798078922465406  1.0000
  Al  Al109     1.0  0.08085833520522129  0.056196310953636246  0.024649868555977783  1.0000
  Al  Al110     1.0  0.9208532733351601  0.17908095183807998  0.39239742132570504  1.0000
  O   O163      1.0  0.5391783229919681  0.14045476456263725  0.13996146778912724  1.0000
  O   O164      1.0  0.17964405933509506  0.2842698074609976  0.3347652686555327  1.0000
  O   O165      1.0  0.11288333780678585  0.6406436396722293  0.6791486158234462  1.0000
  Al  Al111     1.0  0.9522453474221337  0.43924296397857804  0.4326633331323191  1.0000
  Al  Al112     1.0  0.000917185646479677  0.4415107662207604  0.40394746012315  1.0000
  O   O166      1.0  0.7083875858835077  0.1782957270351755  0.9243519246312694  1.0000
  O   O167      1.0  0.4332897257168485  0.2146838476597379  0.40829560290637973  1.0000
  O   O168      1.0  0.9073753638235118  0.8816598589881236  0.3900247708218349  1.0000
  Al  Al113     1.0  0.6499064818140846  0.6646334097290333  0.6446441225090591  1.0000
  Al  Al114     1.0  0.2175671331904073  0.5546930896222572  0.5862754946250086  1.0000
  O   O169      1.0  0.6390683664404889  0.7122332423460436  0.42599057653415034  1.0000
  O   O170      1.0  0.2981408689123343  0.2893977537069207  0.46456034181471073  1.0000
  O   O171      1.0  0.022992661947752433  0.8110062674319953  0.6927491546191619  1.0000
  Al  Al115     1.0  0.7549896921627877  0.8134086800751228  0.2641238174532172  1.0000
  Al  Al116     1.0  0.0030687502288676448  0.5107090798368591  0.5378966734223087  1.0000
  O   O172      1.0  0.832253019480287  0.2844634625792885  0.25206950667412953  1.0000
  O   O173      1.0  0.8988573681148183  0.18513795968308946  0.14816800167898417  1.0000
  O   O174      1.0  0.32931008667594236  0.3493924607410143  0.5344928817146546  1.0000
  Al  Al117     1.0  0.8589776157555958  0.21278488303239465  0.6432863739369569  1.0000
  Al  Al118     1.0  0.947822870132581  0.9560294430077655  0.12001904735505356  1.0000
  O   O175      1.0  0.2403043030834458  0.10140090827651595  0.19667022648068033  1.0000
  O   O176      1.0  0.9213113465016641  0.20270789481186893  0.7182876770191888  1.0000
  O   O177      1.0  0.44448403746731996  0.1899870436363628  0.822154205022901  1.0000
  Al  Al119     1.0  0.15943790182760578  0.2300107751216771  0.7400698784817222  1.0000
  Al  Al120     1.0  0.1697523436102437  0.8345009065098447  0.12634475339723797  1.0000
  O   O178      1.0  0.5713992693489618  0.09231913399520342  0.19518324747430754  1.0000
  O   O179      1.0  0.17596401033756434  0.8916886404809655  0.6682275202573948  1.0000
  O   O180      1.0  0.9522765826497929  0.6601363738443337  0.07327222129985804  1.0000
  Al  Al121     1.0  0.17065873021793795  0.25466735412395725  0.3547228791926174  1.0000
  Al  Al122     1.0  0.7799372253664113  0.1417797918516369  0.42737998840165664  1.0000
  O   O181      1.0  0.8450122784557386  0.7666036085195951  0.5117349471327209  1.0000
  O   O182      1.0  0.9279342239524666  0.3047729638378582  0.06013862172608408  1.0000
  O   O183      1.0  0.40109242491980707  0.04814247189920534  0.6914163895122257  1.0000
  Al  Al123     1.0  0.19826337817268044  0.018212856348524247  0.5721958147027759  1.0000
  Al  Al124     1.0  0.17936901102507488  0.5166220062714855  0.2687047377212475  1.0000
  O   O184      1.0  0.20265894650506186  0.6884104949127258  0.7934537222219917  1.0000
  O   O185      1.0  0.7492496793243445  0.07300654368468648  0.37178146798334955  1.0000
  O   O186      1.0  0.5034069242980747  0.9742872178564372  0.4121265193818973  1.0000
  Al  Al125     1.0  0.8438203813374067  0.7981822669089175  0.9933551785832696  1.0000
  Al  Al126     1.0  0.23051191608054364  0.1423068847782798  0.571136051552288  1.0000
  O   O187      1.0  0.0593111396321214  0.2998349383450394  0.4775222522836711  1.0000
  O   O188      1.0  0.06480287708453689  0.13387983087017655  0.22827723535166322  1.0000
  O   O189      1.0  0.8481192400079379  0.3359358598533431  0.5123764586777559  1.0000
  Al  Al127     1.0  0.32818245449984723  0.8592025967018951  0.068769962159472  1.0000
  Al  Al128     1.0  0.7329600318750732  0.790617017828445  0.36045954249589335  1.0000
  O   O190      1.0  0.8678577374312832  0.23568447909612217  0.19150092212707517  1.0000
  O   O191      1.0  0.670195907865103  0.997732284736971  0.6589257914661945  1.0000
  O   O192      1.0  0.10000102517676414  0.6082124638049657  0.9532109279005978  1.0000
  Al  Al129     1.0  0.9771820125575936  0.538380743418828  0.006992771620911333  1.0000
  Al  Al130     1.0  0.9493719243684983  0.8818306880962354  0.5219519877812375  1.0000
  O   O193      1.0  0.7436051865580106  0.8258673276353466  0.6538400896930269  1.0000
  O   O194      1.0  0.8994913848467869  0.3517620993638639  0.11259391347939908  1.0000
  O   O195      1.0  0.38055509665907333  0.2648701244626403  0.7905937221659723  1.0000
  Al  Al131     1.0  0.8850239358311242  0.6086331671490061  0.7853525501213833  1.0000
  Al  Al132     1.0  0.17337728463590574  0.13086910662579881  0.3006871784473397  1.0000
  O   O196      1.0  0.6190089629803089  0.7455360535904347  0.23672775537568702  1.0000
  O   O197      1.0  0.4957460049524488  0.8540078930024237  0.5375850671310873  1.0000
  O   O198      1.0  0.03198335693120152  0.9750318878466316  0.925106239522234  1.0000
  Al  Al133     1.0  0.16057019798530123  0.48762191597043564  0.5107694964351915  1.0000
  Al  Al134     1.0  0.884715160569222  0.1935321932621267  0.21469283166866385  1.0000
  O   O199      1.0  0.9259791913625536  0.9986377459553535  0.09835668689527746  1.0000
  O   O200      1.0  0.019232733120250967  0.335149390294225  0.999897539684196  1.0000
  O   O201      1.0  0.21267584437008166  0.1607716582798553  0.3679972347077986  1.0000
  Al  Al135     1.0  0.06223706314771317  0.9165659580562651  0.8020749112684585  1.0000
  Al  Al136     1.0  0.13566146808897028  0.5226774133454373  0.42588779093245205  1.0000
  O   O202      1.0  0.6375571496037342  0.7039886877478106  0.054338723146362684  1.0000
  O   O203      1.0  0.9523851858528374  0.17481524029164727  0.8500071055175419  1.0000
  O   O204      1.0  0.3283857223327011  0.13994970733856912  0.7556004648622602  1.0000
  Al  Al137     1.0  0.20890537364999848  0.3874889962451816  0.4171332341463263  1.0000
  Al  Al138     1.0  0.010297269906076467  0.6889085248508655  0.9379499302029534  1.0000
  O   O205      1.0  0.9064072359769536  0.6605907577972333  0.9167987894468484  1.0000
  O   O206      1.0  0.876060014381614  0.6690767857241068  0.10532314490701183  1.0000
  O   O207      1.0  0.7700248966530171  0.17850766945247082  0.43344955015727105  1.0000
  Al  Al139     1.0  0.8423300073760227  0.04684622555107544  0.124765623680857  1.0000
  Al  Al140     1.0  0.356350912473855  0.334616089058353  0.6802348732643272  1.0000
  O   O208      1.0  0.47251087914299406  0.04885119226790713  0.05993740960868552  1.0000
  O   O209      1.0  0.7017019213640283  0.713357774035147  0.9110327939175563  1.0000
  O   O210      1.0  0.1262184935967939  0.3879336216123091  0.4172930086886223  1.0000
  Al  Al141     1.0  0.4048215329768189  0.08081940923798137  0.35497591121782673  1.0000
  Al  Al142     1.0  0.802404695087002  0.2806920911757522  0.21605255303921767  1.0000
  O   O211      1.0  0.8594507708191578  0.42292360249192323  0.9419285343543219  1.0000
  O   O212      1.0  0.08235368936756701  0.027024872007279335  0.7647659512456848  1.0000
  O   O213      1.0  0.8462149705119042  0.4408808271473959  0.6530906191700399  1.0000
  Al  Al143     1.0  0.15902413727295792  0.7434248799445912  0.8728461235479846  1.0000
  Al  Al144     1.0  0.10465600177459757  0.5710863976602998  0.9231073747993639  1.0000
  O   O214      1.0  0.07575127430958613  0.02574891733900338  0.03340200085298966  1.0000
  O   O215      1.0  0.21122714967196202  0.7687190012170991  0.6875412258560823  1.0000
  O   O216      1.0  0.26027877131471255  0.9662657706647114  0.3454831424744391  1.0000
  Al  Al145     1.0  0.7125698758405307  0.7828387567163156  0.48365328061366036  1.0000
  Al  Al146     1.0  0.7437087612836925  0.8122690395705189  0.7144693662718551  1.0000
  O   O217      1.0  0.007039961336957232  0.1713124338762265  0.6834396995034228  1.0000
  O   O218      1.0  0.9536850956552997  0.3151338616631546  0.37433954471467046  1.0000
  O   O219      1.0  0.008497926562513917  0.8707513015542712  0.41882823354096516  1.0000
  Al  Al147     1.0  0.6711068172153142  0.7834503799779239  0.23829575846971318  1.0000
  Al  Al148     1.0  0.13918947581842986  0.3096250381446731  0.464911976552906  1.0000
  O   O220      1.0  0.892210310785926  0.952824834165357  0.04742687027644603  1.0000
  O   O221      1.0  0.04754060628658273  0.5332684550921163  0.9826954356908111  1.0000
  O   O222      1.0  0.82908406619778  0.9048409911493667  0.7013956367719332  1.0000
  Al  Al149     1.0  0.15065887508037915  0.8018034162151529  0.16961613255323707  1.0000
  Al  Al150     1.0  0.3512698865182234  0.14942135917126417  0.08098312338824658  1.0000
  O   O223      1.0  0.27157567145414846  0.1840987473031508  0.7329283059779123  1.0000
  O   O224      1.0  0.294795127410877  0.09312706291385277  0.21326286274751308  1.0000
  O   O225      1.0  0.41713986131580283  0.8449328179928188  0.10984717854345975  1.0000
  Al  Al151     1.0  0.0880840820426211  0.5242132097363685  0.5020668378577327  1.0000
  Al  Al152     1.0  0.2174227742860059  0.41315148428924936  0.32514050232329694  1.0000
  O   O226      1.0  0.8397609419926281  0.19150384179510702  0.8230018754434514  1.0000
  O   O227      1.0  0.1797259692046215  0.668478123828808  0.16860504682167735  1.0000
  O   O228      1.0  0.10995335020307258  0.0873955576956468  0.847827238260613  1.0000
  Al  Al153     1.0  0.48996989639785127  0.09576202411029  0.823703380031189  1.0000
  Al  Al154     1.0  0.8675864899922765  0.23400132203315643  0.3439067705491352  1.0000
  O   O229      1.0  0.4240947683842327  0.8814639084538397  0.17967480466286545  1.0000
  O   O230      1.0  0.005180726378503612  0.49215007695456703  0.7903772406047621  1.0000
  O   O231      1.0  0.9812708933021569  0.4292526971066104  0.6378855317670452  1.0000
  Al  Al155     1.0  0.33354220272732166  0.10780845095629223  0.7835608547025424  1.0000
  Al  Al156     1.0  0.08725879893955232  0.027692271976514075  0.6316617900176225  1.0000
  O   O232      1.0  0.42337085784822326  0.2578072288245125  0.7080639037737259  1.0000
  O   O233      1.0  0.6776259415126337  0.1828027165361933  0.45732239122065743  1.0000
  O   O234      1.0  0.28557330142990567  0.0011035436863146958  0.30752639012219163  1.0000
  Al  Al157     1.0  0.9913652239441355  0.8922829846633993  0.4740286408334488  1.0000
  Al  Al158     1.0  0.3922579176815853  0.19199340562278397  0.6535800404719033  1.0000
  O   O235      1.0  0.6158082794880593  0.8939220569971862  0.7618026330901416  1.0000
  O   O236      1.0  0.8186167007429423  0.6064031375439076  0.17044190821177674  1.0000
  O   O237      1.0  0.5435233887036337  0.8159433917890925  0.7300968164794066  1.0000
  Al  Al159     1.0  0.030771906123718308  0.8998821492509071  0.9004890468950594  1.0000
  Al  Al160     1.0  0.9098393804224058  0.935530852638307  0.11115964257611946  1.0000
  O   O238      1.0  0.9974410526353583  0.2964687853081705  0.6365924631350713  1.0000
  O   O239      1.0  0.8955027334036195  0.40533237543338435  0.11189076660178103  1.0000
  O   O240      1.0  0.3279912493933023  0.9343772694102801  0.05823556560211816  1.0000
  Si  Si1       1.0  0.936749919308102  0.34064330618267824  0.417051983232527  1.0000
  O   O241      1.0  0.9189624638965371  0.5564502082318089  0.06625254965048981  1.0000
  O   O242      1.0  0.10307531607653685  0.21782307464352643  0.9800494014031481  1.0000
  Si  Si2       1.0  0.43113899945739326  0.9863931169190925  0.3800489183485693  1.0000
  O   O243      1.0  0.06193569619479597  0.11924544974302245  0.961770195117092  1.0000
  O   O244      1.0  0.8723170084666425  0.7508658122798616  0.42420616380691084  1.0000
  Si  Si3       1.0  0.557228123493023  0.9227854085569814  0.5528898139981739  1.0000
  O   O245      1.0  0.08230150470495365  0.23261538826546502  0.275113943356615  1.0000
  O   O246      1.0  0.004174135354315156  0.9231850631393382  0.7336627244716859  1.0000
  Si  Si4       1.0  0.9968097179087904  0.7374174009958483  0.12724480260860443  1.0000
  O   O247      1.0  0.13157022982746597  0.9366883788380745  0.24833110836952796  1.0000
  O   O248      1.0  0.1584466468211222  0.1685190534064131  0.6286612067376054  1.0000
  Si  Si5       1.0  0.15934715862400525  0.1809034439448551  0.234860646641591  1.0000
  O   O249      1.0  0.5527762028803855  0.09311343367719117  0.4210635911401634  1.0000
  O   O250      1.0  0.17153359776976945  0.48401487056708037  0.9407906617662724  1.0000
  Si  Si6       1.0  0.5783415158608659  0.024387301151010295  0.5237352050761593  1.0000
  O   O251      1.0  0.2717310686777781  0.3613632737817658  0.6748938982825797  1.0000
  O   O252      1.0  0.31144503480812946  0.886930917282937  0.922477742449252  1.0000
  Si  Si7       1.0  0.9153165700688674  0.02329410789509269  0.6394426462602499  1.0000
  O   O253      1.0  0.872714547532245  0.8506806669737136  0.5404995886623309  1.0000
  O   O254      1.0  0.8872229500051291  0.6998283177207975  0.4594447369180105  1.0000
  Si  Si8       1.0  0.8533026516885781  0.5223075324243848  0.5244886078758013  1.0000
  O   O255      1.0  0.9380653100123075  0.12993111031183097  0.644300057627332  1.0000
  O   O256      1.0  0.28186230986575256  0.13360568243176685  0.038483807288075586  1.0000
  Si  Si9       1.0  0.19566864812871082  0.33047013530315245  0.7698357498376677  1.0000
  O   O257      1.0  0.12891212864514187  0.24963119038441797  0.78678250380216  1.0000
  O   O258      1.0  0.21973700622063058  0.3172270212262068  0.8176294988652256  1.0000
  Si  Si10      1.0  0.9506545428591278  0.2107092061840805  0.5587863002421256  1.0000
  O   O259      1.0  0.9101852362753478  0.4444518280656661  0.24278518646717068  1.0000
  O   O260      1.0  0.16157899770615045  0.4655356302829521  0.692152222480806  1.0000
  Si  Si11      1.0  0.11621289797061153  0.3411468946202055  0.6154858338025495  1.0000
  O   O261      1.0  0.7331409651799308  0.8904312262491608  0.4482607539364391  1.0000
  O   O262      1.0  0.9767905846578877  0.7547204312315816  0.33638554493539785  1.0000
  Si  Si12      1.0  0.17602812489342273  0.15788000521120416  0.9061240645951211  1.0000
  O   O263      1.0  0.7516037580517335  0.7458786842880619  0.634674069764686  1.0000
  O   O264      1.0  0.5817273648764011  0.750165842731196  0.34882538294332294  1.0000
  Si  Si13      1.0  0.5348953674898006  0.7369268197685944  0.9833722102800985  1.0000
  O   O265      1.0  0.07202389434450984  0.1866260617088895  0.15423453195236037  1.0000
  O   O266      1.0  0.8487007226597393  0.5604791126734527  0.0010094946285062493  1.0000
  Si  Si14      1.0  0.9855504427094974  0.14875315961681856  0.023275932136771357  1.0000
  O   O267      1.0  0.764324690105205  0.07609208140746047  0.8172776362136608  1.0000
  O   O268      1.0  0.4013375627345995  0.2395116265307928  0.04078075007811126  1.0000
  Si  Si15      1.0  0.04334922034934023  0.885002020474336  0.2760546547111977  1.0000
  O   O269      1.0  0.9161228483285909  0.881248684446266  0.9960454664788193  1.0000
  O   O270      1.0  0.717395516519323  0.9703847412154608  0.10683421917950157  1.0000
  Si  Si16      1.0  0.17891894006146306  0.6970803728156009  0.36755682339269147  1.0000
  O   O271      1.0  0.9755067901658439  0.13706256388626809  0.26488985787465347  1.0000
  O   O272      1.0  0.7166794088962865  0.7992817140145841  0.6071323598373326  1.0000
  Si  Si17      1.0  0.8017116902830909  0.5399522480498941  0.8356778460808224  1.0000
  O   O273      1.0  0.7376910306938239  0.07398461570496259  0.7375896701135584  1.0000
  O   O274      1.0  0.43884344252821494  0.026569150495846423  0.0812957460195247  1.0000
  Si  Si18      1.0  0.9205157079303358  0.8594459789412289  0.4354379623827156  1.0000
  O   O275      1.0  0.2857518205338282  0.29952512490111266  0.8488536659166186  1.0000
  O   O276      1.0  0.9113121560448659  0.8059121771244685  0.08880125743959358  1.0000
  Si  Si19      1.0  0.005313216685376063  0.5857359498840243  0.8053464652289227  1.0000
  O   O277      1.0  0.43605178303673453  0.9225547914033158  0.20749040631617202  1.0000
  O   O278      1.0  0.04851680399977818  0.6592889724764479  0.09594290789130014  1.0000
  Si  Si20      1.0  0.9019536811848103  0.1441447320987705  0.9277104078965671  1.0000
  O   O279      1.0  0.2868119234651382  0.24477968838258438  0.6065449824218561  1.0000
  O   O280      1.0  0.5639523983645555  0.9435517525057491  0.6843083450722498  1.0000
  Si  Si21      1.0  0.746385540468945  0.18614159346036693  0.6822588701744199  1.0000
  O   O281      1.0  0.6033239629259699  0.9482197735872214  0.23695570865914184  1.0000
  O   O282      1.0  0.8813455551860244  0.6949058679564813  0.8274139942636324  1.0000
  Si  Si22      1.0  0.7457176448948919  0.5784487650158341  0.5762039402293581  1.0000
  O   O283      1.0  0.9851261897566135  0.3232061903009865  0.29287045343062323  1.0000
  O   O284      1.0  0.9779048342340716  0.6260036272726718  0.8949891547984483  1.0000
  Si  Si23      1.0  0.6211679548401342  0.9060219624081477  0.8211793995775067  1.0000
  O   O285      1.0  0.4539186601743325  0.2793621426229165  0.7231814815616465  1.0000
  O   O286      1.0  0.1747902020007609  0.039393184860136134  0.13948243239638805  1.0000
  Si  Si24      1.0  0.38463728604139547  0.2433215385079305  0.2682241048470779  1.0000
  O   O287      1.0  0.8722104156182935  0.25709260750583146  0.7132431227591546  1.0000
  O   O288      1.0  0.8072631751948998  0.3176505219513924  0.3382574559075581  1.0000
  Si  Si25      1.0  0.8245221527893348  0.1778892794948648  0.7793520203409964  1.0000
  O   O289      1.0  0.12234190120037533  0.9345508635959128  0.6684483652640307  1.0000
  O   O290      1.0  0.6935022414851763  0.06613950524180813  0.7935960056358233  1.0000
  Si  Si26      1.0  0.7454512172025641  0.1505729603875626  0.7705760683551569  1.0000
  O   O291      1.0  0.3687496038846766  0.8477176188191193  0.8397455868228147  1.0000
  O   O292      1.0  0.3480344412238662  0.3411476384285775  0.2315146815156608  1.0000
  Si  Si27      1.0  0.7778453384683935  0.22009444215868382  0.5844957879517558  1.0000
  O   O293      1.0  0.842000862937931  0.8100534823437349  0.45769968305004416  1.0000
  O   O294      1.0  0.2947944158951747  0.8096928572572765  0.2619831530990937  1.0000
  Si  Si28      1.0  0.0973921618246851  0.8346560741732879  0.23407918268830488  1.0000
  O   O295      1.0  0.8760676736169365  0.02975555496937152  0.16355356757109774  1.0000
  O   O296      1.0  0.9799868211014564  0.5034524251511234  0.6972042376162715  1.0000
  Si  Si29      1.0  0.8167959321400565  0.9152088418932842  0.19871009761903477  1.0000
  O   O297      1.0  0.8839554059134891  0.518342742763669  0.5465198731791756  1.0000
  O   O298      1.0  0.2336837013690618  0.8936304967683709  0.7920066443256885  1.0000
  Si  Si30      1.0  0.6724408571510356  0.9559907124320188  0.41121568061114006  1.0000
  O   O299      1.0  0.0951605316277668  0.7298769552509033  0.20068524429480622  1.0000
  O   O300      1.0  0.10671605794886367  0.3098523825347763  0.48549480340676804  1.0000
  Si  Si31      1.0  0.3688296551025486  0.30185716789042255  0.09260739410506938  1.0000
  O   O301      1.0  0.673511412375686  0.6746637099302996  0.8281352522175174  1.0000
  O   O302      1.0  0.2747105309539424  0.8086222774697862  0.6537349453651113  1.0000
  Si  Si32      1.0  0.6349721298291248  0.7301157824819493  0.09287789961836194  1.0000
  O   O303      1.0  0.9249550835239878  0.053721814051905875  0.1716053031434739  1.0000
  O   O304      1.0  0.844368277464003  0.7048879876028759  0.017119944885955616  1.0000
  Si  Si33      1.0  0.36933380011450945  0.9973057878677044  0.7013453227392427  1.0000
  O   O305      1.0  0.1982682019948324  0.23442710279398205  0.004031387432886837  1.0000
  O   O306      1.0  0.1852945554808449  0.8022164124868169  0.16588914975439395  1.0000
  Si  Si34      1.0  0.3222299317738646  0.12883376695872784  0.5066030008686588  1.0000
  O   O307      1.0  0.0672468416388611  0.6056784140114393  0.5402301005947125  1.0000
  O   O308      1.0  0.3256641763289532  0.030086572926983423  0.23506568575433057  1.0000
  Si  Si35      1.0  0.16572549866479663  0.46278898529448964  0.2682208704916653  1.0000
  O   O309      1.0  0.8452169533322761  0.41195777833854585  0.7382198517366229  1.0000
  O   O310      1.0  0.1165897349064502  0.7016509249802296  0.920477310701843  1.0000
  Si  Si36      1.0  0.008470677554731819  0.811808156388574  0.9366852534775812  1.0000
  O   O311      1.0  0.43618635119654137  0.8270234835205472  0.20774173736278215  1.0000
  O   O312      1.0  0.5445338432718042  0.8639289555238792  0.7395510693689406  1.0000
  Si  Si37      1.0  0.016812208455003592  0.08393170070683606  0.37121715923029147  1.0000
  O   O313      1.0  0.970680749522023  0.8299313241209642  0.9491034901371592  1.0000
  O   O314      1.0  0.14043567985093194  0.02857582410371533  0.8184470033317081  1.0000
  Si  Si38      1.0  0.34966018393641246  0.3206349557178265  0.5684142935644463  1.0000
  O   O315      1.0  0.08292252006200172  0.3785165572849966  0.4225876232690619  1.0000
  O   O316      1.0  0.31598682569823755  0.0010090440540584701  0.7901647920924947  1.0000
  Si  Si39      1.0  0.7334751423751107  0.19966960262780833  0.5675065629535422  1.0000
  O   O317      1.0  0.7442388081078755  0.1481121081116482  0.018144161302896367  1.0000
  O   O318      1.0  0.46096305029379064  0.1812231598062237  0.038424670894578176  1.0000
  Si  Si40      1.0  0.3140232087460466  0.8057704588395335  0.40901064620750993  1.0000
  O   O319      1.0  0.5788590731583638  0.09571593923583888  0.07965970071228771  1.0000
  O   O320      1.0  0.8475395341652662  0.002994013356697776  0.7814255948787019  1.0000
  Si  Si41      1.0  0.3251773695209312  0.03126019661890924  0.17375865965986417  1.0000
  O   O321      1.0  0.048904938457256755  0.7517065536405222  0.5129806341901533  1.0000
  O   O322      1.0  0.014444246337323427  0.22140726289065238  0.7403971967826892  1.0000
  Si  Si42      1.0  0.22337111557791384  0.8011808754093739  0.2996684106793006  1.0000
  O   O323      1.0  0.028811686422602772  0.5912247541540256  0.5858604920743108  1.0000
  O   O324      1.0  0.12995823841091866  0.3702503504974483  0.03868584726500162  1.0000
  Si  Si43      1.0  0.19431242206581106  0.211394670374388  0.5572017622392691  1.0000
  O   O325      1.0  0.7478898528984365  0.8122668233016302  0.19701861410233004  1.0000
  O   O326      1.0  0.41386104438874705  0.07812948444909851  0.1896497595101685  1.0000
  Si  Si44      1.0  0.15891641670103318  0.5677514737581213  0.08732086252378715  1.0000
  O   O327      1.0  0.5345546253125882  0.14047956854651042  0.03139192685985597  1.0000
  O   O328      1.0  0.20503112349029426  0.0005076437724468716  0.24873588553827353  1.0000
  Si  Si45      1.0  0.04082651655512805  0.6363808198426797  0.6637756032737747  1.0000
  O   O329      1.0  0.23482503908040805  0.3944780908888469  0.4455237322391518  1.0000
  O   O330      1.0  0.15976263180575268  0.10751402699808565  0.3175071889760137  1.0000
  Si  Si46      1.0  0.43020479192173866  0.054220196098798086  0.23863123683945275  1.0000
  O   O331      1.0  0.186916713388134  0.6632444447589516  0.3844018667707509  1.0000
  O   O332      1.0  0.8913808848675291  0.6097761530456322  0.2755555590315868  1.0000
  Si  Si47      1.0  0.07742753139991759  0.8335264499809524  0.7173872873778241  1.0000
  O   O333      1.0  0.47797772539892536  0.08223157893917865  0.2558392927945221  1.0000
  O   O334      1.0  0.04630948668592829  0.9548599293609857  0.8147444468935261  1.0000
  Si  Si48      1.0  0.9613919619644941  0.955562097099168  0.6068785830815941  1.0000
  O   O335      1.0  0.9407419147003571  0.5013595996481596  0.11073546634730727  1.0000
  O   O336      1.0  0.07823445784939309  0.8037846099726788  0.9597844420070715  1.0000
  Si  Si49      1.0  0.7166702460281579  0.8303603568915963  0.6100319154477265  1.0000
  O   O337      1.0  0.27940464452865954  0.2479391342127945  0.43258646337287193  1.0000
  O   O338      1.0  0.26534449264675275  0.11646365334335053  0.4495067618570171  1.0000
  Si  Si50      1.0  0.03567940233867675  0.1920911649802155  0.010596953729226444  1.0000
  O   O339      1.0  0.28423393816186476  0.3029035818584627  0.5587127830230652  1.0000
  O   O340      1.0  0.973547301306109  0.6584484772193392  0.9768366875850585  1.0000
  Si  Si51      1.0  0.19515671497273337  0.6763780290409788  0.005046230078783522  1.0000
  O   O341      1.0  0.9388331450897619  0.5721326398282395  0.8652890208440656  1.0000
  O   O342      1.0  0.6953011599117914  0.5914033940075335  0.44288758948448054  1.0000
  Si  Si52      1.0  0.3175407800038691  0.8215688680945062  0.24762939479967672  1.0000
  O   O343      1.0  0.6526635752502998  0.7215003687586059  0.5223720439146119  1.0000
  O   O344      1.0  0.9824890388644628  0.6685940106403182  0.4421950395149452  1.0000
  Si  Si53      1.0  0.9032473184464869  0.08541734336565772  0.1996564817893074  1.0000
  O   O345      1.0  0.3000148513256428  0.25456456529390736  0.126596057655924  1.0000
  O   O346      1.0  0.8749006664497249  0.49203729356935255  0.3284328615144784  1.0000
  Si  Si54      1.0  0.3002225440935753  0.8887780069643508  0.255314604700942  1.0000
  O   O347      1.0  0.9558126643677889  0.10818466851635787  0.49009499763611664  1.0000
  O   O348      1.0  0.5253079010946099  0.05099553903343069  0.6421187481704576  1.0000
  Si  Si55      1.0  0.7608701267012119  0.8020326579497937  0.44107305197766394  1.0000
  O   O349      1.0  0.7433719912918698  0.02154372331578668  0.9631490019637279  1.0000
  O   O350      1.0  0.8360461799586728  0.7210785816720213  0.892902499062029  1.0000
  Si  Si56      1.0  0.8054073425567337  0.31881625647747935  0.2769717234248066  1.0000
  O   O351      1.0  0.06489331176093067  0.9677645817229729  0.681669873646975  1.0000
  O   O352      1.0  0.7565341441607256  0.6030422072521505  0.5861452432508896  1.0000
  Si  Si57      1.0  0.8797142614159491  0.18759899216876544  0.09666056729008579  1.0000
  O   O353      1.0  0.9289091873118562  0.8714711061234014  0.4843110374072179  1.0000
  O   O354      1.0  0.40097952044518875  0.9413259377304233  0.9358385543328899  1.0000
  Si  Si58      1.0  0.7011095093652963  0.7019521311950104  0.08744397748724024  1.0000
  O   O355      1.0  0.09750761700199698  0.6392707095132755  0.04112054559590588  1.0000
  O   O356      1.0  0.677784106100285  0.03799303228829297  0.7016876839084927  1.0000
  Si  Si59      1.0  0.09843942745924758  0.11171277258268676  0.2119685196924581  1.0000
  O   O357      1.0  0.5260772944165967  0.13925624111125667  0.5416877381176497  1.0000
  O   O358      1.0  0.2254267680094729  0.1776921070576457  0.9759022177131296  1.0000
  Si  Si60      1.0  0.9126417902171546  0.01661465425733308  0.7562003761283164  1.0000
  O   O359      1.0  0.5863444423924689  0.7884230601803728  0.6603668460276275  1.0000
  O   O360      1.0  0.9748003449609622  0.9587408719108536  0.07791557949946297  1.0000
  Si  Si61      1.0  0.19443859966863508  0.7227969752276919  0.7997951348802105  1.0000
  O   O361      1.0  0.10008128225120003  0.3001535836788367  0.04139338886476945  1.0000
  O   O362      1.0  0.10326025759024669  0.2682202495989301  0.5395738700067495  1.0000
  Si  Si62      1.0  0.8864589000953128  0.58539559479928  0.06293369679542442  1.0000
  O   O363      1.0  0.6366947414803733  0.1294358264745776  0.34142846749612626  1.0000
  O   O364      1.0  0.034353847808285064  0.09299924373281628  0.414635543026357  1.0000
  Si  Si63      1.0  0.6689219588472742  0.850547784018879  0.5111482002373577  1.0000
  O   O365      1.0  0.5610565444882952  0.8320740799419238  0.933862851795859  1.0000
  O   O366      1.0  0.7476578782175526  0.5857457844473358  0.06329090120856655  1.0000
  Si  Si64      1.0  0.09731381562120871  0.947299835031235  0.23183637957736525  1.0000
  O   O367      1.0  0.1631535395763921  0.1464166099487634  0.8611838224912989  1.0000
  O   O368      1.0  0.636708574512353  0.13977387951798056  0.723744631252366  1.0000
  Si  Si65      1.0  0.33340546411933286  0.34047881663807444  0.17616550484033489  1.0000
  O   O369      1.0  0.14352210383727787  0.9466151652142688  0.9066059809435766  1.0000
  O   O370      1.0  0.043911804112444344  0.4968859025179056  0.5313343292291168  1.0000
  Si  Si66      1.0  0.5621478053059908  0.1274602754963925  0.19056921600985577  1.0000
  O   O371      1.0  0.8346841440565899  0.6974028840823939  0.6334458964877846  1.0000
  O   O372      1.0  0.0068654725965692975  0.6157862883577245  0.7956914217914958  1.0000
  Si  Si67      1.0  0.4165649867690508  0.26023415054579296  0.02511487247093139  1.0000
  O   O373      1.0  0.5310085950845236  0.006177601244656172  0.06943527952578171  1.0000
  O   O374      1.0  0.7938347728656179  0.07088627204856203  0.898178531085269  1.0000
  Si  Si68      1.0  0.3894847833771446  0.2075182383850031  0.9477826443034548  1.0000
  O   O375      1.0  0.49941898695957565  0.7493965409521199  0.9704605677662409  1.0000
  O   O376      1.0  0.3278491135057589  0.08646441288787267  0.7382484077981892  1.0000
  Si  Si69      1.0  0.0192584018212992  0.7817664142579688  0.3652156787825606  1.0000
  O   O377      1.0  0.4394412667615524  0.9781017078983614  0.12409316685620966  1.0000
  O   O378      1.0  0.13286703880730977  0.16083984233111032  0.7679528070213676  1.0000
  Si  Si70      1.0  0.20601463644320706  0.03912209970189254  0.1333223850472434  1.0000
  O   O379      1.0  0.23336394765480478  0.7598360958811526  0.87070404508263  1.0000
  O   O380      1.0  0.757394424400565  0.8316704264915049  0.7518768481241015  1.0000
  Si  Si71      1.0  0.8568519932964367  0.581323777473901  0.9661727895790563  1.0000
  O   O381      1.0  0.07394116201306714  0.8771076137595165  0.5640149162812886  1.0000
  O   O382      1.0  0.8196633784268227  0.3754793143042789  0.892887829164508  1.0000
  Si  Si72      1.0  0.9829147668864363  0.08340596558064522  0.8425852590530948  1.0000
  O   O383      1.0  0.16867461211248347  0.8661030462453847  0.14621689260899365  1.0000
  O   O384      1.0  0.3648560966233872  0.32841392792805224  0.614044883206237  1.0000
  Si  Si73      1.0  0.95140526255857  0.6000882214516187  0.5564789761594099  1.0000
  O   O385      1.0  0.11756659450257638  0.8102728010973299  0.4715565646064512  1.0000
  O   O386      1.0  0.20705868396924826  0.7467667814296254  0.3893235926256777  1.0000
  Si  Si74      1.0  0.10904868809049272  0.37897736086483097  0.4584068040668638  1.0000
  O   O387      1.0  0.5339976131541185  0.018782484603623317  0.36338068273174445  1.0000
  O   O388      1.0  0.6747013086828499  0.07511973691422388  0.5085679109070684  1.0000
  Si  Si75      1.0  0.15129909939501002  0.9196688597835998  0.7017644676668169  1.0000
  O   O389      1.0  0.6550453316051731  0.6658723456250345  0.9769005612696527  1.0000
  O   O390      1.0  0.037841398115848704  0.9517798912914185  0.35135900555384864  1.0000
  Si  Si76      1.0  0.0011778125662396707  0.015501240625109686  0.5886540820749471  1.0000
  O   O391      1.0  0.7534380678110095  0.7757689589518363  0.7229824486515423  1.0000
  O   O392      1.0  0.1579667646648123  0.7963582399371457  0.354448087225035  1.0000
  Si  Si77      1.0  0.8447081119813723  0.9142005675906087  0.6568170777674274  1.0000
  O   O393      1.0  0.7009120342089225  0.12531167263520396  0.4023577305676828  1.0000
  O   O394      1.0  0.586229450913329  0.7185154333110207  0.2139273342609707  1.0000
  Si  Si78      1.0  0.6650315226940658  0.922355041663068  0.767894192185423  1.0000
  O   O395      1.0  0.23731173468729674  0.3675518535721106  0.9888806123356935  1.0000
  O   O396      1.0  0.12346136148019524  0.03895016931555432  0.12560718024563602  1.0000
  Si  Si79      1.0  0.05974256737809233  0.8745297174995974  0.04086397671478852  1.0000
  O   O397      1.0  0.02111927303424067  0.6957124991161681  0.8758988281415457  1.0000
  O   O398      1.0  0.09365271113615437  0.6411863380890781  0.860403427217512  1.0000
  Si  Si80      1.0  0.9716013065161088  0.31545920234392416  0.9251831723384913  1.0000
  O   O399      1.0  0.3093124205539975  0.2345755582447657  0.03058144169335991  1.0000
  O   O400      1.0  0.02477038629051098  0.41067522264662576  0.4363493434812772  1.0000
  Si  Si81      1.0  0.08157901126510234  0.014055552422711552  0.8208761816017077  1.0000
  O   O401      1.0  0.7410354069311  0.15794466957326  0.29969890084894546  1.0000
  O   O402      1.0  0.4553927643537879  0.16085889600349956  0.3643095732415866  1.0000
  Si  Si82      1.0  0.3800760654720938  0.2680461335402015  0.4879782277701021  1.0000
  O   O403      1.0  0.7056719996384648  0.8659234089097704  0.2020365770762418  1.0000
  O   O404      1.0  0.8429404053656454  0.9875926427955078  0.3687400783219237  1.0000
  Si  Si83      1.0  0.01981066972069576  0.682898133637371  0.05477199566352738  1.0000
  O   O405      1.0  0.36580402730892303  0.11892409281595091  0.24895244789379112  1.0000
  O   O406      1.0  0.7353796701810068  0.7804382894597274  0.9649122162241853  1.0000
  Si  Si84      1.0  0.8664769022949489  0.5214604242218223  0.2962144497235313  1.0000
  O   O407      1.0  0.05007462089142127  0.11667298407185947  0.6961058777047746  1.0000
  O   O408      1.0  0.8271672664210337  0.38119060615408595  0.2908291019489223  1.0000
  Si  Si85      1.0  0.9240285393483728  0.2499185560585724  0.04801334730042765  1.0000
  O   O409      1.0  0.8059251681411043  0.18939192102326083  0.5659763636528468  1.0000
  O   O410      1.0  0.26596131116049326  0.4070484003601395  0.6285658299347104  1.0000
  Si  Si86      1.0  0.9117332727447539  0.2662785828357982  0.8344284178187004  1.0000
  O   O411      1.0  0.6370009743612265  0.6504584011639718  0.5980768734155226  1.0000
  O   O412      1.0  0.3773262122369907  0.029941509556600264  0.8452301982783538  1.0000
  Si  Si87      1.0  0.14176607904092844  0.001630924108461344  0.8549176598344225  1.0000
  O   O413      1.0  0.2052592584606897  0.1061363387040652  0.26785790423165806  1.0000
  O   O414      1.0  0.36121801487908045  0.21976464831021045  0.9873247513783487  1.0000
  Si  Si88      1.0  0.23608378923322254  0.48505480299932047  0.3350615556622873  1.0000
  O   O415      1.0  0.1678516962268137  0.6659907597907883  0.7999534590574241  1.0000
  O   O416      1.0  0.8834705564164008  0.6329966364543737  0.18022903658312095  1.0000
  Si  Si89      1.0  0.9343163007739701  0.3736882672883201  0.5632507813933477  1.0000
  O   O417      1.0  0.0035443215529729613  0.8001831633180614  0.2097649950652476  1.0000
  O   O418      1.0  0.5387587705428635  0.9965107916585212  0.6397863657350852  1.0000
  Si  Si90      1.0  0.9876806547752716  0.7027412034886295  0.22244699438211105  1.0000
  O   O419      1.0  0.7713769268554267  0.5476365307019281  0.3159754712814968  1.0000
  O   O420      1.0  0.7790172985033978  0.31486603638127  0.24704626932960605  1.0000
  Si  Si91      1.0  0.324716263888781  0.8743154786544329  0.5392509257785898  1.0000
  O   O421      1.0  0.9113100604562705  0.392435081692158  0.891062571234854  1.0000
  O   O422      1.0  0.05131032774732383  0.5742496045453167  0.04205123906278479  1.0000
  Si  Si92      1.0  0.01747056004636488  0.5232782738763447  0.2733516411621213  1.0000
  O   O423      1.0  0.30652050425470073  0.09859402581924838  0.9508524946870617  1.0000
  O   O424      1.0  0.049908448351566256  0.3515475547106204  0.05830041115481226  1.0000
  Si  Si93      1.0  0.19757977392735454  0.7323329651541843  0.4349260080826658  1.0000
  O   O425      1.0  0.7276695179350975  0.9356424549255847  0.1902297349906166  1.0000
  O   O426      1.0  0.8679771718962269  0.18181022634361224  0.6041094570969603  1.0000
  Si  Si94      1.0  0.6009558348216832  0.14071018353520345  0.9943368218008273  1.0000
  O   O427      1.0  0.3913698056838686  0.16685201800915214  0.34225809727907636  1.0000
  O   O428      1.0  0.7970999297331198  0.5612723516306622  0.12253295909999842  1.0000
  Si  Si95      1.0  0.2768276870581319  0.9241430650422793  0.5970443139315489  1.0000
  O   O429      1.0  0.9637932659480712  0.38884874137892494  0.8564254647260634  1.0000
  O   O430      1.0  0.99669044031531  0.3648683039830741  0.08625657849666162  1.0000
  Si  Si96      1.0  0.894178155233605  0.7151135759558872  0.40923465958556404  1.0000
  O   O431      1.0  0.1617399400380582  0.8786273370483293  0.2607610580039855  1.0000
  O   O432      1.0  0.7719981523564583  0.2673337795379914  0.4508556208706466  1.0000
  Si  Si97      1.0  0.2717928213733729  0.8182935431492233  0.31087619838730735  1.0000
  O   O433      1.0  0.6934930238442658  0.9780420677095941  0.8386302351247948  1.0000
  O   O434      1.0  0.11626948131748169  0.18265086121030683  0.4388884972091655  1.0000
  Si  Si98      1.0  0.7336253880440963  0.704250132968416  0.9342202878598095  1.0000
  O   O435      1.0  0.9028237135946001  0.3236185319264528  0.5448436766307034  1.0000
  O   O436      1.0  0.0716173251495641  0.9893456130602503  0.8124841367874475  1.0000
  Si  Si99      1.0  0.3296341073670643  0.19391518997360915  0.2379209347599195  1.0000
  O   O437      1.0  0.02463165012830475  0.9905900327630442  0.5494290280874936  1.0000
  O   O438      1.0  0.8350797402746163  0.4742746133320084  0.31374284773401473  1.0000
  Si  Si100     1.0  0.031201461537604246  0.31889251303054533  0.5172732419616585  1.0000
  O   O439      1.0  0.15561832881114873  0.6192867921140497  0.30300153817463404  1.0000
  O   O440      1.0  0.20136766553493243  0.4446859918762395  0.2795682510246513  1.0000
  Si  Si101     1.0  0.7173102139363579  0.10305924411750128  0.35057915184496585  1.0000
  O   O441      1.0  0.8920649854911769  0.8780645329360637  0.1917473272869421  1.0000
  O   O442      1.0  0.5222652055095625  0.10671840235426577  0.09417463862482947  1.0000
  Si  Si102     1.0  0.6506215937574813  0.11191524265200878  0.5046723863763125  1.0000
  O   O443      1.0  0.8181717594841463  0.790759472477631  0.018181854243087277  1.0000
  O   O444      1.0  0.6223971434164112  0.0883614363939865  0.2912152139417514  1.0000
  Si  Si103     1.0  0.0415521314970779  0.5810680903305481  0.43855108362384443  1.0000
  O   O445      1.0  0.28812110996641416  0.34874119253064556  0.3532005674914184  1.0000
  O   O446      1.0  0.6832859735619617  0.6316203785876796  0.8940335550114947  1.0000
  Si  Si104     1.0  0.8885181218218023  0.7274947373665048  0.23119228526056723  1.0000
  O   O447      1.0  0.7998629637441935  0.5097845096461834  0.49804525231474356  1.0000
  O   O448      1.0  0.9947662165392234  0.06799915171356326  0.7865614685987085  1.0000
  Si  Si105     1.0  0.49540110314648667  0.8211949313026847  0.8865195896914282  1.0000
  O   O449      1.0  0.721806422766185  0.03507459733081392  0.40723390613479  1.0000
  O   O450      1.0  0.026701058297406016  0.946808680171266  0.48889173870735053  1.0000
  Si  Si106     1.0  0.2917846623703699  0.29863192832998536  0.7860078939223727  1.0000
  O   O451      1.0  0.4313505188469569  0.07321691390631258  0.2946534001200265  1.0000
  O   O452      1.0  0.21589268801642644  0.7181270510909694  0.11189434641739285  1.0000
  Si  Si107     1.0  0.2771820238210464  0.18811653139627316  0.08561198495902672  1.0000
  O   O453      1.0  0.7996492301617621  0.7037587707218701  0.5532043693797364  1.0000
  O   O454      1.0  0.6451375514876374  0.7235928662917104  0.8763926002995074  1.0000
  Si  Si108     1.0  0.7139069679626121  0.7679190902631666  0.8201368560360159  1.0000
  O   O455      1.0  0.7000654597264858  0.1472024398685909  0.12928554793954186  1.0000
  O   O456      1.0  0.47444742686832125  0.08183773864696975  0.7777028894592629  1.0000
  Si  Si109     1.0  0.2216840005422095  0.20043501318509957  0.021780076815983315  1.0000
  O   O457      1.0  0.8161553624263144  0.8767314565219824  0.04415029018146371  1.0000
  O   O458      1.0  0.19563828603197184  0.9480757392369299  0.9326971433415728  1.0000
  Si  Si110     1.0  0.1873462340969248  0.05001204007091412  0.9425675555880325  1.0000
  O   O459      1.0  0.5063758910636459  0.1957298025286975  0.024274601062036327  1.0000
  O   O460      1.0  0.03997192297216352  0.03280211087654665  0.9555047349264404  1.0000
  Si  Si111     1.0  0.6608303122814382  0.8640687510734273  0.9896065440756273  1.0000
  O   O461      1.0  0.4234532563134665  0.18861576344244338  0.9687591729055228  1.0000
  O   O462      1.0  0.9242631982435795  0.7591261762236315  0.33874309849468237  1.0000
  Si  Si112     1.0  0.7884144531362369  0.6826818568888564  0.8552494980877884  1.0000
  O   O463      1.0  0.01849614963031187  0.05376754840175106  0.6877549125743588  1.0000
  O   O464      1.0  0.7931775013153408  0.0016698393155823899  0.575254931721213  1.0000
  Si  Si113     1.0  0.9658692201502066  0.5117953562670755  0.6401577191468742  1.0000
  O   O465      1.0  0.22345698669142477  0.22555855205207015  0.7871958816709579  1.0000
  O   O466      1.0  0.9839189551677563  0.9882283375882575  0.8624214795220003  1.0000
  Si  Si114     1.0  0.7398687255101636  0.9395385976014423  0.5745825670628616  1.0000
  O   O467      1.0  0.12592014015648062  0.9360868026771657  0.51833202205598  1.0000
  O   O468      1.0  0.751346989474031  0.008864304042553263  0.49676699465706337  1.0000
  Si  Si115     1.0  0.43668332105172936  0.24427229391198688  0.42084325409553397  1.0000
  O   O469      1.0  0.06381646855589318  0.9442970777087367  0.001945309008069276  1.0000
  O   O470      1.0  0.7996108066298893  0.8453377248178611  0.29880069816844135  1.0000
  Si  Si116     1.0  0.04792902466689807  0.5102585879903228  0.10714253185209424  1.0000
  O   O471      1.0  0.3438099892596929  0.9275011101498348  0.4457869886634576  1.0000
  O   O472      1.0  0.2073569596994974  0.554670666874566  0.8743238704371316  1.0000
  Si  Si117     1.0  0.8567021113826082  0.4397920389495342  0.997358321233882  1.0000
  O   O473      1.0  0.5799455281844687  0.8943397808287208  0.09177703483334224  1.0000
  O   O474      1.0  0.8455734629400168  0.6875170749741449  0.20148697814253835  1.0000
  Si  Si118     1.0  0.8059742089425523  0.06538260995047245  0.2647241243746581  1.0000
  O   O475      1.0  0.9513157929624547  0.10490306564804447  0.06436272236211198  1.0000
  O   O476      1.0  0.9765956109457476  0.8602592238503048  0.04788341043850291  1.0000
  Si  Si119     1.0  0.8440217218453404  0.0838540780636234  0.9617533275143939  1.0000
  O   O477      1.0  0.7063656323785591  0.689216444815639  0.5643386301348834  1.0000
  O   O478      1.0  0.10883063390088028  0.308131364090274  0.21491740012455451  1.0000
  Si  Si120     1.0  0.9744248901440411  0.5733216664450942  0.3395452405352543  1.0000
  O   O479      1.0  0.21578490526771313  0.7505297940772605  0.5861810885846457  1.0000
  O   O480      1.0  0.8140053384772139  0.2727212523046005  0.1504252852715984  1.0000
  Si  Si121     1.0  0.06463448253362593  0.008247316878801808  0.9975907866229795  1.0000
  O   O481      1.0  0.4594640871240137  0.8540409414836222  0.7273874490948747  1.0000
  O   O482      1.0  0.8671498992538917  0.3412312918361007  0.04370204495846391  1.0000
  Si  Si122     1.0  0.9159093669001136  0.5694754582526168  0.5992067397008387  1.0000
  O   O483      1.0  0.20194837669276097  0.947658103361708  0.03434879825126074  1.0000
  O   O484      1.0  0.7870792226221334  0.5974074966169832  0.6840959723319139  1.0000
  Si  Si123     1.0  0.2852201746584559  0.38338799309165994  0.6745902264041963  1.0000
  O   O485      1.0  0.4065345051038642  0.054596398372768834  0.8926923034280426  1.0000
  O   O486      1.0  0.2280475346053411  0.2602159848156171  0.9766975850670953  1.0000
  Si  Si124     1.0  0.7786647040668215  0.8590204221816972  0.12490950730341788  1.0000
  O   O487      1.0  0.9332418378095515  0.07944679956743991  0.5508417022823624  1.0000
  O   O488      1.0  0.8851019115386672  0.2100837003017536  0.3992959072202089  1.0000
  Si  Si125     1.0  0.9675065075544841  0.43166965397752144  0.311442583954049  1.0000
  O   O489      1.0  0.5425949331210078  0.7744150073622461  0.6766902357789256  1.0000
  O   O490      1.0  0.877595345919635  0.279965533121172  0.20084340262862677  1.0000
  Si  Si126     1.0  0.2467046403078026  0.9800129700692072  0.6554705648697198  1.0000
  O   O491      1.0  0.7181723092245379  0.7201124649216183  0.07101095180569965  1.0000
  O   O492      1.0  0.7880395645703082  0.47410817581608916  0.04997194563766015  1.0000
  Si  Si127     1.0  0.8668513788523903  0.8657469573725113  0.48462098878993015  1.0000
  O   O493      1.0  0.89041391257408  0.6131648274088988  0.07776861284535101  1.0000
  O   O494      1.0  0.056056254034039986  0.6571864608013388  0.673959132318933  1.0000
  Si  Si128     1.0  0.22073897859212105  0.7816753879087655  0.18306342226637676  1.0000
  O   O495      1.0  0.791028549653879  0.5124007885030283  0.39383545377418316  1.0000
  O   O496      1.0  0.0318421412934007  0.80214293849709  0.3925312316264979  1.0000
  Si  Si129     1.0  0.05190745573440087  0.10734106491432281  0.44229673859874574  1.0000
  O   O497      1.0  0.35717744877500285  0.8775306839215653  0.7483000505010621  1.0000
  O   O498      1.0  0.09874503525296498  0.4022770336781542  0.5065670715888089  1.0000
  Si  Si130     1.0  0.1505336381649686  0.6951879188503963  0.9221548473302518  1.0000
  O   O499      1.0  0.6543409929635482  0.8395352991064352  0.7406157316076738  1.0000
  O   O500      1.0  0.5092973383591034  0.19009535300606373  0.5892912864748949  1.0000
  Si  Si131     1.0  0.5740098806546123  0.10843005948991057  0.4279502478621702  1.0000
  O   O501      1.0  0.01703161537713628  0.6246618398021471  0.18051375329801966  1.0000
  O   O502      1.0  0.2122586708296109  0.3497338873328914  0.40398817505201207  1.0000
  Si  Si132     1.0  0.45420618440694166  0.2084348456958706  0.1598266763302856  1.0000
  O   O503      1.0  0.7459296214147154  0.5916303492102278  0.17239894586475768  1.0000
  O   O504      1.0  0.5111320887562322  0.20384292659896835  0.27390900473479796  1.0000
  Si  Si133     1.0  0.7888813895712008  0.6305564789901454  0.13595148569031038  1.0000
  O   O505      1.0  0.7456770077776859  0.6758438732953571  0.9733432689632998  1.0000
  O   O506      1.0  0.9163544102431492  0.04073438339804955  0.5199921278879969  1.0000
  Si  Si134     1.0  0.10509200994636132  0.43397000245249767  0.21588539005771668  1.0000
  O   O507      1.0  0.09069375452669165  0.44583068011311205  0.5695324203499401  1.0000
  O   O508      1.0  0.21422874041128895  0.6478168750364135  0.9682468526007876  1.0000
  Si  Si135     1.0  0.6812400312781467  0.7621505712154473  0.42420787544806715  1.0000
  O   O509      1.0  0.42730736432497646  0.2674461611039513  0.3743314731526996  1.0000
  O   O510      1.0  0.18300767622306624  0.08237731062829098  0.9436801720678779  1.0000
  Si  Si136     1.0  0.23891855269902396  0.31652363478207374  0.19743120538787987  1.0000
  O   O511      1.0  0.4765150586197653  0.005435248660059971  0.6091286970524556  1.0000
  O   O512      1.0  0.6694931441395605  0.6355252366487125  0.5114259274780573  1.0000
  Si  Si137     1.0  0.8860272242838272  0.034879484520352805  0.3630283828396467  1.0000
  O   O513      1.0  0.11865559301111041  0.8759830248288767  0.9317009952701826  1.0000
  O   O514      1.0  0.9331900791894701  0.9907970007273016  0.6159019427651096  1.0000
  Si  Si138     1.0  0.8681232131223748  0.756110925109203  0.6772430336707378  1.0000
  O   O515      1.0  0.08935952981195154  0.25866295244382786  0.06503466824848562  1.0000
  O   O516      1.0  0.6992611417248027  0.0910610952303796  0.3177423151696863  1.0000
  Si  Si139     1.0  0.9578984053746251  0.22343829727842227  0.1535628476145854  1.0000
  O   O517      1.0  0.1646655783003189  0.3313892626832952  0.7881499882299267  1.0000
  O   O518      1.0  0.9141070781083231  0.8375623155419674  0.9143582928617925  1.0000
  Si  Si140     1.0  0.04922934288344768  0.8372539388700829  0.9599837404349889  1.0000
  O   O519      1.0  0.14053625414910165  0.5452450983062055  0.9463854615829203  1.0000
  O   O520      1.0  0.6907431078418075  0.8152447934537561  0.5232056841236623  1.0000
  Si  Si141     1.0  0.8126736508914848  0.763000020943491  0.6164318377536233  1.0000
  O   O521      1.0  0.39810240369706557  0.9175102594478124  0.7514852732227654  1.0000
  O   O522      1.0  0.46494403654223804  0.1321650757980619  0.9867349777581792  1.0000
  Si  Si142     1.0  0.018396124319868135  0.3131140962803033  0.30809104188819014  1.0000
  O   O523      1.0  0.019382929161376374  0.33144827837882485  0.3599103815542819  1.0000
  O   O524      1.0  0.9929748678535726  0.33339117810388536  0.701356379508268  1.0000
  Si  Si143     1.0  0.8403055197985781  0.5801502994800116  0.36080339453134747  1.0000
  O   O525      1.0  0.920272732548772  0.5991268214810621  0.7680801072064507  1.0000
  O   O526      1.0  0.2182330852002496  0.03477735962188169  0.18918098306760522  1.0000
  Si  Si144     1.0  0.14693966819609763  0.6178118084676094  0.6997713448882876  1.0000
  O   O527      1.0  0.6465597752160673  0.9393934342413129  0.062206944398516456  1.0000
  O   O528      1.0  0.6216302072598618  0.12471987903580403  0.5404098802046919  1.0000
  Si  Si145     1.0  0.5684563933838663  0.011577735138235354  0.35295283361059154  1.0000
  O   O529      1.0  0.6544585575420793  0.1301096742149178  0.8660946720048527  1.0000
  O   O530      1.0  0.9258702621018141  0.9136657581449991  0.17189723348075128  1.0000
  Si  Si146     1.0  0.7523971419452341  0.5833583714283342  0.3238479124005981  1.0000
  O   O531      1.0  0.9369588869383758  0.12431585254710548  0.2968830935859341  1.0000
  O   O532      1.0  0.8651172187868129  0.8763549288811704  0.8687847452137648  1.0000
  Si  Si147     1.0  0.8211700837403254  0.6909990500410802  0.2439346502650945  1.0000
  O   O533      1.0  0.8501076290173456  0.08479889697590999  0.023380360224818427  1.0000
  O   O534      1.0  0.8245729290420352  0.46134926432755335  0.1263433941245378  1.0000
  Si  Si148     1.0  0.08304507550562594  0.6529492571897066  0.09824240539239429  1.0000
  O   O535      1.0  0.7661297941424234  0.6856619652232929  0.3862422935722722  1.0000
  O   O536      1.0  0.07915260642381312  0.23079992052362172  0.17825424533002399  1.0000
  Si  Si149     1.0  0.8155126340961351  0.5275666767103196  0.10060278070985143  1.0000
  O   O537      1.0  0.04877551320869078  0.5639785858137312  0.198696717473931  1.0000
  O   O538      1.0  0.21452732398382354  0.20090977697219192  0.21438605015632883  1.0000
  Si  Si150     1.0  0.13882268260718794  0.8072845138169559  0.8953813187171228  1.0000
  O   O539      1.0  0.5976628360966282  0.9854462715006134  0.8844403427650539  1.0000
  O   O540      1.0  0.5892972572657942  0.18211257195905645  0.7783154961205829  1.0000
  Si  Si151     1.0  0.6737771065678034  0.06545989242386423  0.6676167067395349  1.0000
  O   O541      1.0  0.08302141054087898  0.40857015318995654  0.7215572659824417  1.0000
  O   O542      1.0  0.03553135967768798  0.6441663840248162  0.811852388452135  1.0000
  Si  Si152     1.0  0.08999260165442788  0.38904227303448546  0.2662376933330475  1.0000
  O   O543      1.0  0.002953282123275726  0.7444924568717843  0.98869102614482  1.0000
  O   O544      1.0  0.7758803776005285  0.9341493084748663  0.07557512716131125  1.0000
  Si  Si153     1.0  0.12608030791383393  0.23308354076643792  0.5539972312482371  1.0000
  O   O545      1.0  0.975004629130648  0.45662340152699576  0.45371231970202824  1.0000
  O   O546      1.0  0.23204249977981686  0.9457473060126451  0.7868973536067988  1.0000
  Si  Si154     1.0  0.12412087620984062  0.41201109981073025  0.8383651045348485  1.0000
  O   O547      1.0  0.028305158468462766  0.5458162652879597  0.10076944108953684  1.0000
  O   O548      1.0  0.34523703650438037  0.31432513271698764  0.04464727827725951  1.0000
  Si  Si155     1.0  0.2617570813055567  0.9885803662690649  0.08961623098698661  1.0000
  O   O549      1.0  0.09082944139078253  0.6708690433764158  0.4422196807833232  1.0000
  O   O550      1.0  0.6371426272867202  0.8028750221290921  0.05056550097617259  1.0000
  Si  Si156     1.0  0.6066733895303266  0.9544170758757867  0.29719616271321936  1.0000
  O   O551      1.0  0.8866265477505796  0.4382254429953591  0.009577089215380087  1.0000
  O   O552      1.0  0.21712629195647878  0.7796304066639805  0.48658047378564606  1.0000
  Si  Si157     1.0  0.1893173004646865  0.6739523821753227  0.8302001603106185  1.0000
  O   O553      1.0  0.9567959157134661  0.4866419270899716  0.6326991805051932  1.0000
  O   O554      1.0  0.46631197697488197  0.1542656224083847  0.7408164723681546  1.0000
  Si  Si158     1.0  0.5605912939089829  0.1683954864092837  0.3832446301340579  1.0000
  O   O555      1.0  0.20516460900780895  0.32049982780901837  0.07045231851450186  1.0000
  O   O556      1.0  0.09941936978700171  0.37187428948022055  0.6487498168489988  1.0000
  Si  Si159     1.0  0.18739489989418687  0.767841023080984  0.7279102738221906  1.0000
  O   O557      1.0  0.225351648851807  0.9976767450886758  0.5132718552001612  1.0000
  O   O558      1.0  0.3086075150813881  0.9238763853488604  0.14086270720417085  1.0000
  Si  Si160     1.0  0.14680029017397925  0.5387685244699286  0.17784143059010216  1.0000
  O   O559      1.0  0.30681943422039926  0.13138750835171448  0.4500166567643851  1.0000
  O   O560      1.0  0.8914953580096354  0.2788408859163342  0.048214180085609924  1.0000
  Si  Si161     1.0  0.6092574045939975  0.7121371867479398  0.46187404563721146  1.0000
  O   O561      1.0  0.4328747707647082  0.24067141138988465  0.8402290425629936  1.0000
  O   O562      1.0  0.09757978166086999  0.8021755447506633  0.6902469649681098  1.0000
  Si  Si162     1.0  0.4421367273451417  0.11922663020150057  0.6481268100847054  1.0000
  O   O563      1.0  0.1773336483877936  0.971778298430481  0.2796790337958902  1.0000
  O   O564      1.0  0.9507132447420404  0.5515176919646989  0.9605924537485556  1.0000
  Si  Si163     1.0  0.003021326655218469  0.41867761328670505  0.9713262229032962  1.0000
  O   O565      1.0  0.5544712723336003  0.9810568367004018  0.979501063319667  1.0000
  O   O566      1.0  0.977297457155982  0.6966510891738961  0.7965558784396253  1.0000
  Si  Si164     1.0  0.8698414584567941  0.20746578397521268  0.9346871008945679  1.0000
  O   O567      1.0  0.04804777116671409  0.2047180707057463  0.6552729920223446  1.0000
  O   O568      1.0  0.014465569301847328  0.970294357734436  0.05977102226612989  1.0000
  Si  Si165     1.0  0.7543404939436986  0.9234777613302625  0.23824192505699615  1.0000
  O   O569      1.0  0.2160806758278334  0.4844564653627666  0.38271654804280186  1.0000
  O   O570      1.0  0.61228935271762  0.036138285307292455  0.17781754877766145  1.0000
  Si  Si166     1.0  0.3686173806441414  0.16769775993170308  0.8980841564197227  1.0000
  O   O571      1.0  0.21272315557637503  0.7795678276522677  0.32476372388171865  1.0000
  O   O572      1.0  0.9420655645436203  0.5195148930346337  0.861133719981262  1.0000
  Si  Si167     1.0  0.1236659599870968  0.9115818414671272  0.38354423199278986  1.0000
  O   O573      1.0  0.16479961047006667  0.5580934248291181  0.8145763101966208  1.0000
  O   O574      1.0  0.5312922023295218  0.19840639209229194  0.40536257020251104  1.0000
  Si  Si168     1.0  0.9577209935653287  0.03596085739627742  0.14360750096096622  1.0000
  O   O575      1.0  0.8433952659104321  0.7329584601880949  0.11507208909181824  1.0000
  O   O576      1.0  0.2744278932325601  0.9652226449259547  0.2284752556421961  1.0000
  Si  Si169     1.0  0.2229072718819328  0.4097210813399465  0.8505725778107035  1.0000
  O   O577      1.0  0.07798400766099504  0.30714912577757225  0.3610945009369388  1.0000
  O   O578      1.0  0.9750068298131824  0.14952209617055837  0.6377347328317853  1.0000
  Si  Si170     1.0  0.900044419223669  0.09975056133494171  0.4111265197855019  1.0000
  O   O579      1.0  0.6534087250584732  0.7657577874409865  0.9180258983467064  1.0000
  O   O580      1.0  0.16289923864445033  0.5962619861904888  0.10980210618110935  1.0000
  Si  Si171     1.0  0.896102014921132  0.4640948291874166  0.6313351545506567  1.0000
  O   O581      1.0  0.9893321130406595  0.6230136042384685  0.6597818002282242  1.0000
  O   O582      1.0  0.962821680020165  0.24765865412281832  0.19491395665534775  1.0000
  Si  Si172     1.0  0.6039674098933698  0.11694316521156198  0.6514326982440697  1.0000
  O   O583      1.0  0.9858655243660589  0.9290077240014692  0.45244970265533924  1.0000
  O   O584      1.0  0.5947669302759735  0.8640341473969182  0.7120368802110011  1.0000
  Si  Si173     1.0  0.8185711591640521  0.5865502608387743  0.6511832308456528  1.0000
  O   O585      1.0  0.8756127090965999  0.5899581841966767  0.004641696930099139  1.0000
  O   O586      1.0  0.987955779306432  0.6354584904557414  0.3633797636977067  1.0000
  Si  Si174     1.0  0.23630125399291657  0.059493351678025636  0.4237128261806504  1.0000
  O   O587      1.0  0.014157640112619082  0.8016714113053406  0.8763324003755592  1.0000
  O   O588      1.0  0.6210922891020043  0.6878816370192694  0.8784589490753455  1.0000
  Si  Si175     1.0  0.8978141148129878  0.8467239795903301  0.8569010989743311  1.0000
  O   O589      1.0  0.28023672573136965  0.21783237680379972  0.09602407560971596  1.0000
  O   O590      1.0  0.8830669445754025  0.2856072744452026  0.5617092992473323  1.0000
  Si  Si176     1.0  0.005344985551510214  0.5923364823521798  0.6257080267081269  1.0000
  O   O591      1.0  0.31651353927385545  0.1941825614555304  0.2921442314378594  1.0000
  O   O592      1.0  0.030354145359943702  0.8044028503110912  0.5579597271731739  1.0000
  Si  Si177     1.0  0.25546934846362424  0.8675633262111483  0.0011104234690829133  1.0000
  O   O593      1.0  0.07385313734777342  0.33834544635931063  0.8158686995375989  1.0000
  O   O594      1.0  0.129114977675189  0.16549306620761356  0.1342100448484769  1.0000
  Si  Si178     1.0  0.8644082913740102  0.12768691547061856  0.6993343034650678  1.0000
  O   O595      1.0  0.006006631818170346  0.8528180357771918  0.6190361598722135  1.0000
  O   O596      1.0  0.47269150432397167  0.2155763149395546  0.7647651562930811  1.0000
  Si  Si179     1.0  0.21882702965068956  0.9317262391077847  0.9793448168525651  1.0000
  O   O597      1.0  0.5218227841836073  0.17106627319176443  0.9411913758156979  1.0000
  O   O598      1.0  0.07531639924917728  0.5071662006737623  0.34213813644531066  1.0000
  Si  Si180     1.0  0.07761167024160376  0.6117721423158328  0.28504055628721336  1.0000
  O   O599      1.0  0.8370299617550315  0.9475086774657971  0.4194398843289974  1.0000
  O   O600      1.0  0.15644259424247015  0.02099742262267527  0.32694885114522365  1.0000
  Si  Si181     1.0  0.06573122225540821  0.9290272218928868  0.3197092820829701  1.0000
  O   O601      1.0  0.8268394463719102  0.527309806856328  0.5632484244180167  1.0000
  O   O602      1.0  0.14807979008993147  0.16188253582641535  0.2688032565286958  1.0000
  Si  Si182     1.0  0.9300012425841588  0.10245022059615966  0.01861232679425323  1.0000
  O   O603      1.0  0.1955345087426802  0.4436455700952043  0.09408079658511273  1.0000
  O   O604      1.0  0.8487598987869268  0.12607405857085968  0.08783774440846218  1.0000
  Si  Si183     1.0  0.735848858492376  0.07024118064632832  0.14168335659762557  1.0000
  O   O605      1.0  0.9159557455687845  0.0931516773817966  0.2509456066049072  1.0000
  O   O606      1.0  0.9420931462272556  0.3834457795613483  0.6175849357578699  1.0000
  Si  Si184     1.0  0.09857973551473383  0.12278224731955528  0.855614870130675  1.0000
  O   O607      1.0  0.5634519481304835  0.800642999057271  0.3052275547297427  1.0000
  O   O608      1.0  0.18523480047356103  0.3920543219353761  0.9484785972843307  1.0000
  Si  Si185     1.0  0.03399689768470757  0.14962803549761272  0.7223589823328178  1.0000
  O   O609      1.0  0.7468395602892832  0.21469971454629133  0.7092385337259852  1.0000
  O   O610      1.0  0.8618156249917599  0.4932916379047599  0.4889846579279802  1.0000
  Si  Si186     1.0  0.6726424565822781  0.9757038643120672  0.6139505141764341  1.0000
  O   O611      1.0  0.4356931514745279  0.19980540695484267  0.55014449217734  1.0000
  O   O612      1.0  0.8842487713187003  0.048006796799965314  0.773331606304566  1.0000
  Si  Si187     1.0  0.17668818972296912  0.8187790557714579  0.810777191286875  1.0000
  O   O613      1.0  0.08986524520735327  0.24948201400964135  0.36090486262847743  1.0000
  O   O614      1.0  0.9451424576054357  0.49528119241692403  0.2143694849471924  1.0000
  Si  Si188     1.0  0.2644882928087139  0.3465854141872399  0.029223851857214597  1.0000
  O   O615      1.0  0.09532498303620941  0.8610702456478505  0.19580518409759584  1.0000
  O   O616      1.0  0.49512803770172176  0.9602800913779926  0.2851170727515788  1.0000
  Si  Si189     1.0  0.6535017395430595  0.7883138987058167  0.8731451165094338  1.0000
  O   O617      1.0  0.4164986162228947  0.08229637313969396  0.08674000606709474  1.0000
  O   O618      1.0  0.2514668702032369  0.45380139014653514  0.7733021186797673  1.0000
  Si  Si190     1.0  0.8748107200499796  0.5627047502623339  0.8535960697981712  1.0000
  O   O619      1.0  0.8111268075746191  0.5921364767618226  0.5887787052192921  1.0000
  O   O620      1.0  0.8742830584389503  0.8351496510856357  0.015323855600863301  1.0000
  Si  Si191     1.0  0.8927633162489795  0.3283182418025938  0.08557550868610543  1.0000
  O   O621      1.0  0.3126043878395115  0.1622066980566446  0.0845882669817624  1.0000
  O   O622      1.0  0.19562332775053204  0.4417947353052606  0.8683030560175173  1.0000
  Si  Si192     1.0  0.9156284377674331  0.04096362822367757  0.45755981371055754  1.0000
  O   O623      1.0  0.22094085873269395  0.7383353566898072  0.9603635691113961  1.0000
  O   O624      1.0  0.5938183730475455  0.8095750752509193  0.2300549495711042  1.0000
  Si  Si193     1.0  0.758193916762334  0.8873292643959328  0.40785648351288206  1.0000
  O   O625      1.0  0.5429332351599577  0.14797407270274562  0.23762099568010855  1.0000
  O   O626      1.0  0.7248139124157695  0.04813603220435379  0.24959920969963367  1.0000
  Si  Si194     1.0  0.731578658813764  0.1307120764114946  0.15744678233784337  1.0000
  O   O627      1.0  0.016496169232612164  0.013469133558690338  0.8494808448688637  1.0000
  O   O628      1.0  0.15111001767463567  0.39998145903588056  0.3443012077192668  1.0000
  Si  Si195     1.0  0.15061032290360057  0.5619312346412977  0.7581555330966223  1.0000
  O   O629      1.0  0.8369537129500838  0.08354250351621913  0.12096985673202036  1.0000
  O   O630      1.0  0.24384885898734762  0.85039789954118  0.2947723410863592  1.0000
  Si  Si196     1.0  0.8302723693600952  0.2706019984872963  0.9549536908942448  1.0000
  O   O631      1.0  0.10542436393080937  0.655802689031775  0.34418840701971654  1.0000
  O   O632      1.0  0.02077713151033641  0.8324181666653392  0.9565900744158663  1.0000
  Si  Si197     1.0  0.2044762639933937  0.7621996916648087  0.006435433329657294  1.0000
  O   O633      1.0  0.5330002945384299  0.8179999018759717  0.6145776688472837  1.0000
  O   O634      1.0  0.42183163617034675  0.23340191442629726  0.1364165684610086  1.0000
  Si  Si198     1.0  0.7462505966740939  0.6097922385238428  0.22175390496602468  1.0000
  O   O635      1.0  0.8794511912892841  0.7307379790668885  0.9051676859854594  1.0000
  O   O636      1.0  0.8071709228120895  0.10208477542964166  0.9529620610821741  1.0000
  Si  Si199     1.0  0.1498676002355016  0.4320055378111863  0.3566510856546056  1.0000
  O   O637      1.0  0.1656295596345408  0.6586365600943311  0.9196061226385004  1.0000
  O   O638      1.0  0.06849631452495679  0.8384606804246287  0.7778116404433959  1.0000
  Si  Si200     1.0  0.8314411369267856  0.023481586708664834  0.3648581426451753  1.0000
  O   O639      1.0  0.83587538596437  0.5331152771995701  0.8382901989374715  1.0000
  O   O640      1.0  0.4909719106912867  0.9061017131100818  0.5376812042349295  1.0000
  Si  Si201     1.0  0.5012709339471193  0.20070497271702356  0.4340579001149513  1.0000
  O   O641      1.0  0.9481291936050585  0.3253482477745279  0.7080564027932527  1.0000
  O   O642      1.0  0.2808830243574313  0.22912946834531317  0.9318868694363703  1.0000
  Si  Si202     1.0  0.06477638241733742  0.7920315730531374  0.4148305907319517  1.0000
  O   O643      1.0  0.25574653403754954  0.27353273470525713  0.06703762831879105  1.0000
  O   O644      1.0  0.37373307221359603  0.9522347675121183  0.217548553941461  1.0000
  Si  Si203     1.0  0.8661253969127413  0.46728064917233775  0.34359341332895627  1.0000
  O   O645      1.0  0.15517943512416676  0.20869868704977435  0.00014581452836354432  1.0000
  O   O646      1.0  0.07787978772982032  0.6598093965629357  0.7650532141729888  1.0000
  Si  Si204     1.0  0.8019838042744948  0.5172041549217052  0.5575118056312823  1.0000
  O   O647      1.0  0.23904591161485111  0.7843903925632574  0.13449504793705258  1.0000
  O   O648      1.0  0.10785294464421417  0.8089484049240295  0.8753708206826311  1.0000
  Si  Si205     1.0  0.10972589342583808  0.6723877093885265  0.39396988913939435  1.0000
  O   O649      1.0  0.17082870711209006  0.28308663034655956  0.9538072873974767  1.0000
  O   O650      1.0  0.329382962108343  0.8884884587714033  0.22735458367272376  1.0000
  Si  Si206     1.0  0.9308193658809936  0.0971837985962238  0.3028950649428028  1.0000
  O   O651      1.0  0.8958802981726973  0.7725076852434586  0.49023548183947624  1.0000
  O   O652      1.0  0.2687452016743706  0.45404353187056257  0.34107744585684413  1.0000
  Si  Si207     1.0  0.5439991870578964  0.1755123301848431  0.2646405193371091  1.0000
  O   O653      1.0  0.10363865719450285  0.6298513986648464  0.1484114840379362  1.0000
  O   O654      1.0  0.7889148316052647  0.5352167213462292  0.8888077856598158  1.0000
  Si  Si208     1.0  0.23081069715384142  0.4876488450695347  0.7616828641141586  1.0000
  O   O655      1.0  0.8433793875440816  0.42634319124287773  0.04132579250677697  1.0000
  O   O656      1.0  0.5873365833249947  0.9690261352596743  0.06118015022323352  1.0000
  Si  Si209     1.0  0.21530264341038144  0.2738119151155061  0.31776723559969494  1.0000
  O   O657      1.0  0.36253777172461554  0.9871875928102282  0.8505113409007492  1.0000
  O   O658      1.0  0.09067348107185917  0.9953522685161227  0.5252564509158049  1.0000
  Si  Si210     1.0  0.16642033140684884  0.8625900168229818  0.31781721875066743  1.0000
  O   O659      1.0  0.9181318633048582  0.4381405128473907  0.13689342294637388  1.0000
  O   O660      1.0  0.625299623995873  0.04198650826827559  0.358445332208563  1.0000
  Si  Si211     1.0  0.9806935414467852  0.35214706639931215  0.12360523936158331  1.0000
  O   O661      1.0  0.0011859473417970725  0.535050993949163  0.7239924541076107  1.0000
  O   O662      1.0  0.3816478110317232  0.8191442520590069  0.7450869042527607  1.0000
  Si  Si212     1.0  0.7592954110395018  0.11406316590088014  0.5008648435132577  1.0000
  O   O663      1.0  0.883617737262993  0.08800045043754996  0.8378794206735305  1.0000
  O   O664      1.0  0.33279402574884154  0.2560005889176696  0.6023009182768846  1.0000
  Si  Si213     1.0  0.2995957963945453  0.08310681574539353  0.7319000587062972  1.0000
  O   O665      1.0  0.6791543408356187  0.16895671114745678  0.5532899760579777  1.0000
  O   O666      1.0  0.12254873630479465  0.24896225387111057  0.926667227086462  1.0000
  Si  Si214     1.0  0.006587069039491843  0.6449034328296446  0.402159257469439  1.0000
  O   O667      1.0  0.8494086511131386  0.39507761220933485  0.1445477805697897  1.0000
  O   O668      1.0  0.8866166284728083  0.6000624720992588  0.4557208597240959  1.0000
  Si  Si215     1.0  0.6713534896628164  0.14010002134171548  0.8234301526212268  1.0000
  O   O669      1.0  0.2738537975337255  0.9125526002241422  0.21578130108389204  1.0000
  O   O670      1.0  0.6925529177747812  0.0791408071325189  0.6946721144688107  1.0000
  Si  Si216     1.0  0.25191228489905304  0.011051454782464921  0.9848404446842352  1.0000
  O   O671      1.0  0.27219537172944946  0.9042824182005155  0.8447300744769307  1.0000
  O   O672      1.0  0.7830313417226193  0.8386463820018007  0.07604846437935313  1.0000
  Si  Si217     1.0  0.20114577998126004  0.6371418982418046  0.9193014791197288  1.0000
  O   O673      1.0  0.1872829290629184  0.20127826801937965  0.7824197281131725  1.0000
  O   O674      1.0  0.6474026376616218  0.7785307324272532  0.5491455312223829  1.0000
  Si  Si218     1.0  0.9539528406496592  0.059009059830457525  0.9233403331115587  1.0000
  O   O675      1.0  0.5214723907681047  0.9259355349066111  0.1189014670579132  1.0000
  O   O676      1.0  0.8948626776323083  0.9468532166326034  0.609812059714489  1.0000
  Si  Si219     1.0  0.4512086169445307  0.94670989861824  0.7998304885113136  1.0000
  O   O677      1.0  0.2163663769832395  0.4849749344239715  0.2788944649209  1.0000
  O   O678      1.0  0.8796409828934418  0.561237275082925  0.9174507486754565  1.0000
  Si  Si220     1.0  0.4076770237581841  0.9435212274147632  0.3635199089263073  1.0000
  O   O679      1.0  0.4280012735527549  0.7994039447622067  0.2877749788416175  1.0000
  O   O680      1.0  0.07327587008272209  0.861925024458364  0.0986698960771371  1.0000
  Si  Si221     1.0  0.31487097958746857  0.1779661459370827  0.3436230839794982  1.0000
  O   O681      1.0  0.006616504859850848  0.7396462415993336  0.5387445058302787  1.0000
  O   O682      1.0  0.07191741673993024  0.36264303028916534  0.7274849545003522  1.0000
  Si  Si222     1.0  0.16421630463399825  0.35548154356623146  0.5753616872678389  1.0000
  O   O683      1.0  0.3094486176637436  0.8352302892931526  0.4433454721947033  1.0000
  O   O684      1.0  0.8394418634197339  0.550836565176602  0.4874759414971412  1.0000
  Si  Si223     1.0  0.734553539235001  0.6726295643394501  0.19456521283977793  1.0000
  O   O685      1.0  0.9888138323755591  0.4221803677310689  0.9134000887288852  1.0000
  O   O686      1.0  0.9998331235461403  0.41291510022389943  0.2843176812545024  1.0000
  Si  Si224     1.0  0.27710110035543145  0.3182453114496405  0.5015292652463167  1.0000
  O   O687      1.0  0.15930800142143806  0.6346573842938316  0.7365412092980904  1.0000
  O   O688      1.0  0.1873441330439806  0.749977175806452  0.29240242374877645  1.0000
  Si  Si225     1.0  0.8332552641950226  0.10556484054298398  0.0750631107324871  1.0000
  O   O689      1.0  0.25571846008689236  0.7946934045648401  0.457689671811307  1.0000
  O   O690      1.0  0.24298771578141146  0.1241776400101089  0.2889992735370419  1.0000
  Si  Si226     1.0  0.6528661892916933  0.7185614725388766  0.6797437114701604  1.0000
  O   O691      1.0  0.1534512057107878  0.6112209071638414  0.5513424090268335  1.0000
  O   O692      1.0  0.6454655900357998  0.16749328812472483  0.3947909051943887  1.0000
  Si  Si227     1.0  0.5673753650152759  0.8629798708252762  0.5924536236650815  1.0000
  O   O693      1.0  0.43871920431160055  0.9041039798343362  0.6723041410569026  1.0000
  O   O694      1.0  0.13206374584110084  0.8010518408303855  0.6167743555730755  1.0000
  Si  Si228     1.0  0.5587717695439702  0.06559952849712483  0.29440835157261785  1.0000
  O   O695      1.0  0.8084245656672754  0.3899558148930799  0.19369224050018163  1.0000
  O   O696      1.0  0.1889765909490679  0.980598577825157  0.4769756634365134  1.0000
  Si  Si229     1.0  0.8554372147257235  0.8581500586385156  0.594153857977773  1.0000
  O   O697      1.0  0.0497365204576048  0.9162050907860793  0.9285083106656725  1.0000
  O   O698      1.0  0.9869142465702591  0.6948995810896592  0.6995680237474725  1.0000
  Si  Si230     1.0  0.26989785296162555  0.4219322239862339  0.3270038181863826  1.0000
  O   O699      1.0  0.5416662833313842  0.9542303670797277  0.05240389707966657  1.0000
  O   O700      1.0  0.8934905506297243  0.12136666037435256  0.9022371836199439  1.0000
  Si  Si231     1.0  0.17605590874091684  0.9412706490509402  0.8883339968394248  1.0000
  O   O701      1.0  0.2568352527622736  0.3209119339658775  0.04074016812738251  1.0000
  O   O702      1.0  0.28729594254943647  0.06047525081784357  0.9379388456622936  1.0000
  Si  Si232     1.0  0.7232966420856669  0.6872204003626  0.68834877038453  1.0000
  O   O703      1.0  0.21728405378361557  0.9517540726914356  0.20326494331703462  1.0000
  O   O704      1.0  0.3658204023847546  0.27315121984610147  0.11769454055296905  1.0000
  Si  Si233     1.0  0.973149916469678  0.9122353459467202  0.9578391146273874  1.0000
  O   O705      1.0  0.14368481221298132  0.98208523308126  0.5245615900594884  1.0000
  O   O706      1.0  0.8864088820272077  0.592689521200522  0.6326227584038535  1.0000
  Si  Si234     1.0  0.241917066510587  0.41401826406923214  0.48657803397874294  1.0000
  O   O707      1.0  0.32992661377628957  0.9467905464711149  0.20471084088884764  1.0000
  O   O708      1.0  0.22838798543026428  0.2515913801233344  0.4580639632975918  1.0000
  Si  Si235     1.0  0.8744780099622463  0.9873432982098121  0.7403860081658038  1.0000
  O   O709      1.0  0.6200612763730216  0.7772779659474337  0.31110209874819356  1.0000
  O   O710      1.0  0.6789911481045988  0.8404933436647544  0.8323468774263659  1.0000
  Si  Si236     1.0  0.12273878363253585  0.1107886379186305  0.059671946701487504  1.0000
  O   O711      1.0  0.6281220087250345  0.9578087643268085  0.9629140045355288  1.0000
  O   O712      1.0  0.80273229449756  0.9917903826691955  0.9475126690361039  1.0000
  Si  Si237     1.0  0.9520002804668972  0.7537767049269629  0.37637275825860517  1.0000
  O   O713      1.0  0.5753342579748905  0.08447246649802792  0.3102788033305612  1.0000
  O   O714      1.0  0.47112363270629865  0.23310914718794887  0.43673203356814994  1.0000
  Si  Si238     1.0  0.8392641981935002  0.8591672501921671  0.9966137162118127  1.0000
  O   O715      1.0  0.09842362878972365  0.43934597920687724  0.15417055960653503  1.0000
  O   O716      1.0  0.4955441765552296  0.7889729532292545  0.8927571987958413  1.0000
  Si  Si239     1.0  0.24229224302243998  0.14877835472515882  0.3286207327214654  1.0000
  O   O717      1.0  0.8300961345558098  0.23886690089611243  0.46723338255154195  1.0000
  O   O718      1.0  0.8353684759690901  0.3201461301291765  0.4219960791240152  1.0000
  Si  Si240     1.0  0.08412621618997178  0.7510889745794215  0.14839819363133724  1.0000
  O   O719      1.0  0.9420311520414029  0.33964061372662513  0.568683791586232  1.0000
  O   O720      1.0  0.2531621028480337  0.8842821644218269  0.45493478237054585  1.0000
  Si  Si241     1.0  0.053325082473502934  0.8699803676367338  0.5239556102752944  1.0000
  O   O721      1.0  0.09308967587073916  0.5354173989477342  0.8203596984156688  1.0000
  O   O722      1.0  0.13807349598370391  0.6817361339515939  0.23879159604888422  1.0000
  Si  Si242     1.0  0.050254583692194106  0.7284132114773753  0.6660495451552693  1.0000
  O   O723      1.0  0.5334507501514273  0.7967774709723794  0.0946147665393349  1.0000
  O   O724      1.0  0.8634743310231147  0.0026350630982207974  0.6856752220323431  1.0000
  Si  Si243     1.0  0.764064303667045  0.5890143594763465  0.11868854617320498  1.0000
  O   O725      1.0  0.8687764449638545  0.6295718139232095  0.3658661932956807  1.0000
  O   O726      1.0  0.6952276554190219  0.8518055172179843  0.011115239985672931  1.0000
  Si  Si244     1.0  0.4963620083039995  0.19048014176776146  0.6447076482012098  1.0000
  O   O727      1.0  0.3026286861004587  0.3917969282739667  0.3440111838931752  1.0000
  O   O728      1.0  0.8840718898511081  0.8422839174570371  0.2504646779782178  1.0000
  Si  Si245     1.0  0.7344503522241309  0.5694103403958813  0.6894162575511074  1.0000
  O   O729      1.0  0.73099106282492  0.5919329341651878  0.37435694889569765  1.0000
  O   O730      1.0  0.522216835897228  0.7916193644881829  0.3616573832421485  1.0000
  Si  Si246     1.0  0.17643567657236947  0.6007761585575444  0.25340263053080553  1.0000
  O   O731      1.0  0.9226630015110735  0.022283980765821693  0.7004657384882771  1.0000
  O   O732      1.0  0.05246077836699849  0.4339712060653768  0.1402603912065661  1.0000
  Si  Si247     1.0  0.7286477538956427  0.6583357248542793  0.9953403951274118  1.0000
  O   O733      1.0  0.2130608074030202  0.6934576759058841  0.02091164464315992  1.0000
  O   O734      1.0  0.8240263547720875  0.16169180431524696  0.3608690462338619  1.0000
  Si  Si248     1.0  0.2314106972963837  0.37355272192998856  0.2251369947909172  1.0000
  O   O735      1.0  0.1583325662745446  0.1886411712217153  0.09668843848058664  1.0000
  O   O736      1.0  0.3357239929323737  0.1916585639763525  0.5763327228545458  1.0000
  Si  Si249     1.0  0.8939941271626214  0.8913599561920301  0.043817135225378646  1.0000
  O   O737      1.0  0.04505425754171603  0.35939020183108705  0.3185308747150321  1.0000
  O   O738      1.0  0.16202537858048077  0.4197328079712649  0.12375846722370268  1.0000
  Si  Si250     1.0  0.03181972881716384  0.1398932669153661  0.21016868855556287  1.0000
  O   O739      1.0  0.3498429590579656  0.9470761799860571  0.8153105770137655  1.0000
  O   O740      1.0  0.32261102376335377  0.904558706384789  0.8314421551593681  1.0000
  Si  Si251     1.0  0.40318172381481915  0.03765939892259833  0.44596256393275574  1.0000
  O   O741      1.0  0.6554336949539045  0.9585095809918243  0.629020988971195  1.0000
  O   O742      1.0  0.3680669101131885  0.9469552503530387  0.012298188896507967  1.0000
  Si  Si252     1.0  0.3234924654429783  0.004230505810927572  0.4454824179272603  1.0000
  O   O743      1.0  0.13763592504326316  0.4750117197516596  0.09221963367531696  1.0000
  O   O744      1.0  0.9080662471504184  0.692415893024691  0.578748161260741  1.0000
  Si  Si253     1.0  0.24861334458917855  0.26720235126822534  0.464208238256938  1.0000
  O   O745      1.0  0.9355254681235645  0.7077881353092569  0.014498324089690817  1.0000
  O   O746      1.0  0.7095991129560479  0.757808338763984  0.25788718221212203  1.0000
  Si  Si254     1.0  0.34882671939589505  0.13399766939844548  0.19105197843375946  1.0000
  O   O747      1.0  0.32309891046099837  0.31558109367287307  0.18583422210503708  1.0000
  O   O748      1.0  0.5418990294974566  0.978642508246125  0.46919514756658404  1.0000
  Si  Si255     1.0  0.38797882127876626  0.8626105667915752  0.07268752590981657  1.0000
  O   O749      1.0  0.8074418054962244  0.9592074579231313  0.09205526838065872  1.0000
  O   O750      1.0  0.9648397670165795  0.06687603959380901  0.3156317235701051  1.0000
  Si  Si256     1.0  0.4394216806927575  0.05429558418995284  0.05388008491871203  1.0000
  O   O751      1.0  0.4777859664332868  0.20330345478989012  0.11297995885783511  1.0000
  O   O752      1.0  0.6172105478380642  0.14805423683147223  0.24365994008139702  1.0000
  Si  Si257     1.0  0.010076022376610101  0.35105143012061546  0.7215100343677655  1.0000
  O   O753      1.0  0.5201345905418002  0.8608413954738463  0.262292421602271  1.0000
  O   O754      1.0  0.3823734686576797  0.21520136728603603  0.09936465473585768  1.0000
  Si  Si258     1.0  0.0291592313728311  0.33820589418720853  0.20823785415063178  1.0000
  O   O755      1.0  0.014758076822890225  0.7373600953897615  0.2560561810434554  1.0000
  O   O756      1.0  0.9043050140834241  0.9027159873662355  0.09442702375347103  1.0000
  Si  Si259     1.0  0.07779041922834214  0.8914621212933825  0.6884737532212929  1.0000
  O   O757      1.0  0.09894365931951134  0.8900118116838719  0.6400795982235183  1.0000
  O   O758      1.0  0.20674771723835045  0.21879674331403587  0.6094546540678609  1.0000
  Si  Si260     1.0  0.9615969373925358  0.19963178183890135  0.8615306692377817  1.0000
  O   O759      1.0  0.9068429747793482  0.9693653858596655  0.1357172145696597  1.0000
  O   O760      1.0  0.14106166427429098  0.014669585118132919  0.9090524784217259  1.0000
  Si  Si261     1.0  0.9364456139475817  0.047931102179947574  0.5610119179720789  1.0000
  O   O761      1.0  0.4264715917639679  0.007584449885607144  0.32854022003754113  1.0000
  O   O762      1.0  0.07813163855804568  0.9427311768513343  0.2750047220819267  1.0000
  Si  Si262     1.0  0.6041971444937688  0.08273465220537736  0.03314799241634896  1.0000
  O   O763      1.0  0.4787470734562074  0.9737398983851678  0.055992114945502984  1.0000
  O   O764      1.0  0.0545964563674327  0.1641698790165766  0.7303077386308124  1.0000
  Si  Si263     1.0  0.5125744816496124  0.7734471133385743  0.23605132764822903  1.0000
  O   O765      1.0  0.027592741202948988  0.561890439601364  0.7628294283058287  1.0000
  O   O766      1.0  0.6302249277386247  0.8314238919292186  0.3872471926346683  1.0000
  Si  Si264     1.0  0.918500459240732  0.42031154288371847  0.2864038352639795  1.0000
  O   O767      1.0  0.8614641924773384  0.09863649243072431  0.9311902022899458  1.0000
  O   O768      1.0  0.20622986681845293  0.8774962094173876  0.4498910261051794  1.0000
  Si  Si265     1.0  0.17586150539803777  0.6177511424946193  0.5914773401858666  1.0000
  O   O769      1.0  0.404794723512883  0.24383271095608114  0.6094133032736598  1.0000
  O   O770      1.0  0.8990188847464032  0.7279488751460351  0.6583874494353622  1.0000
  Si  Si266     1.0  0.4408872852041541  0.09435458416620257  0.757370395835908  1.0000
  O   O771      1.0  0.14326146759064304  0.32240812712985906  0.8745713049778542  1.0000
  O   O772      1.0  0.2581082372124476  0.039960533767591594  0.5667943445271904  1.0000
  Si  Si267     1.0  0.028209694197716007  0.6745407996840194  0.32161288253864645  1.0000
  O   O773      1.0  0.0028337366604934944  0.689138294315522  0.2768641725173904  1.0000
  O   O774      1.0  0.7053512904293727  0.050213670454946055  0.8875655674645765  1.0000
  Si  Si268     1.0  0.8764413354285319  0.875836297807102  0.24503168438777412  1.0000
  O   O775      1.0  0.0532185340708124  0.6458250106965766  0.2922747283452803  1.0000
  O   O776      1.0  0.7107519216625772  0.6724283920382259  0.04972887598126745  1.0000
  Si  Si269     1.0  0.018209872577736277  0.06036504645527222  0.6233777715953384  1.0000
  O   O777      1.0  0.07365162522903884  0.47848536726014085  0.9510945639680465  1.0000
  O   O778      1.0  0.8495028929148772  0.26559272855728755  0.3785156484399607  1.0000
  Si  Si270     1.0  0.23902709515672152  0.05620289119152202  0.722436476030179  1.0000
  O   O779      1.0  0.5439654274782326  0.8600938468760043  0.5554025072341888  1.0000
  O   O780      1.0  0.36212651184603917  0.26382762944913973  0.6954426161645297  1.0000
  Si  Si271     1.0  0.5779597093626269  0.058879072121033785  0.18846394539147382  1.0000
  O   O781      1.0  0.1762936103893162  0.11768663065328089  0.5909432637674173  1.0000
  O   O782      1.0  0.8444053295437748  0.22368957128901443  0.31234161222994206  1.0000
  Si  Si272     1.0  0.3282843970690278  0.3023749155043342  0.007341074793437764  1.0000
  O   O783      1.0  0.49729256088088064  0.9106600439542879  0.9485636292050285  1.0000
  O   O784      1.0  0.25376752929274043  0.046027149926922  0.3697278691309231  1.0000
  Si  Si273     1.0  0.13308056182508263  0.3816940397268687  0.35737818121474846  1.0000
  O   O785      1.0  0.08269441977108793  0.30949222322358483  0.9001816387884417  1.0000
  O   O786      1.0  0.3392059329284465  0.9940741585851095  0.30514303324122305  1.0000
  Si  Si274     1.0  0.513440889199002  0.08564737862709502  0.6529683951328923  1.0000
  O   O787      1.0  0.06686762779015812  0.589013920229223  0.1317116098446374  1.0000
  O   O788      1.0  0.24247003802140932  0.338590483033239  0.49387620040301977  1.0000
  Si  Si275     1.0  0.15681501616969679  0.584882269385985  0.5188741367622842  1.0000
  O   O789      1.0  0.8300692823786877  0.474898913267415  0.9939493540077462  1.0000
  O   O790      1.0  0.8127492259001543  0.6482765383579582  0.8669372529809777  1.0000
  Si  Si276     1.0  0.5133801008132579  0.8601918943369414  0.1999207390446336  1.0000
  O   O791      1.0  0.10905259429226562  0.05058383269002702  0.9828338269463143  1.0000
  O   O792      1.0  0.9126357825162825  0.7546321537308313  0.07915949869357845  1.0000
  Si  Si277     1.0  0.21148142359807068  0.8702318058327562  0.6481136108226034  1.0000
  O   O793      1.0  0.16561196134451034  0.7867804071347643  0.5327281216379505  1.0000
  O   O794      1.0  0.6369735995169508  0.6992492269141898  0.6769700063447228  1.0000
  Si  Si278     1.0  0.9719122355655185  0.12066106112585018  0.6567622465646639  1.0000
  O   O795      1.0  0.18477800117630663  0.23449008465562063  0.2963012502750193  1.0000
  O   O796      1.0  0.7273704401024707  0.14268746887178202  0.4977754692208262  1.0000
  Si  Si279     1.0  0.7033807749408358  0.08313855224850464  0.7524686208639287  1.0000
  O   O797      1.0  0.8845782081729158  0.9533456466524333  0.733996656292156  1.0000
  O   O798      1.0  0.7422967116223543  0.09605424048161806  0.16456293254440557  1.0000
  Si  Si280     1.0  0.09751431188910113  0.25123117158679303  0.7911118802630727  1.0000
  O   O799      1.0  0.9221933072376282  0.06137937788324873  0.9095420827014813  1.0000
  O   O800      1.0  0.8727918060221344  0.38979237930916716  0.29090528926816916  1.0000
  Si  Si281     1.0  0.9303666093425181  0.3993655973669998  0.6705466166635087  1.0000
  O   O801      1.0  0.11247642382851607  0.1115305793063042  0.002937206229202185  1.0000
  O   O802      1.0  0.8282613712039865  0.6463936084733782  0.44395592191496264  1.0000
  Si  Si282     1.0  0.3044667053794949  0.3618178738326851  0.48866153481089464  1.0000
  O   O803      1.0  0.9891435627407904  0.45258319737268576  0.9934279752045557  1.0000
  O   O804      1.0  0.7821496704224821  0.6199104057322516  0.876972147862832  1.0000
  Si  Si283     1.0  0.8332641762368176  0.47371875390394813  0.17545384693503244  1.0000
  O   O805      1.0  0.1801750066033477  0.39799018979301654  0.45957438377187326  1.0000
  O   O806      1.0  0.1888628555057367  0.5165257013405224  0.8891041675916515  1.0000
  Si  Si284     1.0  0.11177415036734825  0.05982336369884992  0.46345221706604445  1.0000
  O   O807      1.0  0.206553693041711  0.32155888928275317  0.2164758288447808  1.0000
  O   O808      1.0  0.6074431365122326  0.017622416530781452  0.9382337526407181  1.0000
  Si  Si285     1.0  0.9355446915330751  0.27066141490304585  0.6772009331006699  1.0000
  O   O809      1.0  0.06155642080339071  0.9024085738809023  0.29488669404290846  1.0000
  O   O810      1.0  0.5739531653123511  0.762924251099716  0.5873378531571568  1.0000
  Si  Si286     1.0  0.7475510558025986  0.7830153489623222  0.9095656025128874  1.0000
  O   O811      1.0  0.38718195246267506  0.986108493464808  0.004887637968765735  1.0000
  O   O812      1.0  0.07946084632163991  0.9082737186058292  0.7405711688060856  1.0000
  Si  Si287     1.0  0.22844819459715693  0.17433109332796806  0.9105209099000285  1.0000
  O   O813      1.0  0.290027461850047  0.34007689990440987  0.49031598356447254  1.0000
  O   O814      1.0  0.4529130411107861  0.7721768730369779  0.9012777371533184  1.0000
  Si  Si288     1.0  0.5611474617856127  0.964154783098067  0.8308161171913039  1.0000
  O   O815      1.0  0.8665673784295099  0.10954678474274021  0.3991400699039815  1.0000
  O   O816      1.0  0.5950311782582189  0.9376344266981355  0.837851659473586  1.0000
  Si  Si289     1.0  0.27402619776684023  0.08876917921321538  0.16873908482744795  1.0000
  O   O817      1.0  0.6023384420517173  0.10841055180008967  0.9945540606903016  1.0000
  O   O818      1.0  0.7843145975007231  0.8082273746083709  0.83766350469763  1.0000
  Si  Si290     1.0  0.9857317907282995  0.5170455541961071  0.7489542175399393  1.0000
  O   O819      1.0  0.22667003243299114  0.9784128030002005  0.8941899269396058  1.0000
  O   O820      1.0  0.8822312550972115  0.4930442274196138  0.6674517025502561  1.0000
  Si  Si291     1.0  0.5731260606065018  0.16693859777715184  0.8118001911412861  1.0000
  O   O821      1.0  0.7323761053902339  0.5410791021851403  0.3643926914299637  1.0000
  O   O822      1.0  0.04536437642497308  0.8555936624967053  0.013082585295386251  1.0000
  Si  Si292     1.0  0.605075033550418  0.8206064185497693  0.18110084829405462  1.0000
  O   O823      1.0  0.031111627612968602  0.6161445618786913  0.4329277288632984  1.0000
  O   O824      1.0  0.2673471229184114  0.9401121950448875  0.5415497831324241  1.0000
  Si  Si293     1.0  0.02337935593213014  0.46848601996412315  0.12831660405377268  1.0000
  O   O825      1.0  0.14122055081421048  0.4502042402248573  0.4165291680484231  1.0000
  O   O826      1.0  0.7965853517023308  0.20564093817378967  0.7503530705089577  1.0000
  Si  Si294     1.0  0.1927400652909276  0.29841937103213806  0.20802015821899292  1.0000
  O   O827      1.0  0.2555622306704629  0.006827351498271884  0.6480574858402903  1.0000
  O   O828      1.0  0.9572662496103774  0.26509962624828326  0.7268446131678029  1.0000
  Si  Si295     1.0  0.3015400687497376  0.8605481727892591  0.7399739339375424  1.0000
  O   O829      1.0  0.9723527948457868  0.9517227631493024  0.5481707176899375  1.0000
  O   O830      1.0  0.5889848340181842  0.9997604141553252  0.40378540335615404  1.0000
  Si  Si296     1.0  0.14872269854832237  0.31909414894121774  0.34380178972787734  1.0000
  O   O831      1.0  0.7026743905415802  0.7923490086284236  0.7726141013453646  1.0000
  O   O832      1.0  0.1460238504287351  0.5931787286265737  0.7358908449702474  1.0000
  Si  Si297     1.0  0.0030869379152910865  0.9302868581364002  0.19330294013247928  1.0000
  O   O833      1.0  0.39138042717230054  0.09256391799901743  0.5607530784487118  1.0000
  O   O834      1.0  0.6689952059024027  0.7938164457487169  0.45386088675725084  1.0000
  Si  Si298     1.0  0.645851496378032  0.6614381622879646  0.5475929634601783  1.0000
  O   O835      1.0  0.7355725910960261  0.7965805898831689  0.292503320783728  1.0000
  O   O836      1.0  0.13436719449295226  0.8346343241577433  0.13006773708386013  1.0000
  Si  Si299     1.0  0.25408460643714165  0.26692979900357167  0.5880475243389218  1.0000
  O   O837      1.0  0.9897149629294149  0.895623261361603  0.8038999352272018  1.0000
  O   O838      1.0  0.42516284426403933  0.1558212607996134  0.5203402633356176  1.0000
  Si  Si300     1.0  0.8800897485796005  0.12429198352896804  0.09739799132264196  1.0000
  O   O839      1.0  0.24923457230780235  0.4131500180966131  0.8243322415964837  1.0000
  O   O840      1.0  0.025395199385087462  0.13065246472775274  0.8801706455050262  1.0000
  Si  Si301     1.0  0.0734259055732312  0.06046924400699224  0.7428980890948156  1.0000
  O   O841      1.0  0.15712472426031066  0.5113655420730691  0.05786298886888513  1.0000
  O   O842      1.0  0.05532076943056682  0.7521345575057207  0.6982096398545502  1.0000
  Si  Si302     1.0  0.9050775423695894  0.5295179587712961  0.5179553687926397  1.0000
  O   O843      1.0  0.8229264343252524  0.8034885715774563  0.21259394883768856  1.0000
  O   O844      1.0  0.891603250776977  0.27716007878088395  0.8849394366042495  1.0000
  Si  Si303     1.0  0.8472170840178045  0.24753980444030235  0.1343968054530558  1.0000
  O   O845      1.0  0.22253073718660782  0.8625953361707623  0.13529235017298394  1.0000
  O   O846      1.0  0.8716771959599281  0.9184489861985844  0.6824644072140481  1.0000
  Si  Si304     1.0  0.5371963246637481  0.7884464039210496  0.7358626933355544  1.0000
  O   O847      1.0  0.02883516829153612  0.38709714927896866  0.5929729779522226  1.0000
  O   O848      1.0  0.8626375819435615  0.26155950001928446  0.0989530640232081  1.0000
  Si  Si305     1.0  0.988552194104007  0.5678618094618141  0.4571192291237029  1.0000
  O   O849      1.0  0.18973111400591214  0.5365720975157864  0.08206837867565334  1.0000
  O   O850      1.0  0.5681822129312686  0.7094702570653557  0.3176886695367435  1.0000
  Si  Si306     1.0  0.12218656290295812  0.7446579158390066  0.5738386814456946  1.0000
  O   O851      1.0  0.8686509065749112  0.6611421206516107  0.44453043527616765  1.0000
  O   O852      1.0  0.15548745669660946  0.10844878964954274  0.058329797445812945  1.0000
  Si  Si307     1.0  0.18729306032926726  0.883995171658485  0.13786083580618616  1.0000
  O   O853      1.0  0.7853621525114731  0.12401381165483034  0.4911626164863909  1.0000
  O   O854      1.0  0.5102144588431431  0.024069069676484325  0.9318213093663257  1.0000
  Si  Si308     1.0  0.3622049195291618  0.9305246138061755  0.06113257424571354  1.0000
  O   O855      1.0  0.10859713099403868  0.6118313866598382  0.27571280657898956  1.0000
  O   O856      1.0  0.4192735983178999  0.14170318867004106  0.42606100970412103  1.0000
  Si  Si309     1.0  0.1501461645680444  0.014463343316410509  0.6235242260434989  1.0000
  O   O857      1.0  0.7058583291505205  0.8984491452206642  0.5310133481480026  1.0000
  O   O858      1.0  0.5046971791402379  0.9785366859201283  0.9620029495181895  1.0000
  Si  Si310     1.0  0.8834402944573179  0.44412657895237506  0.7982364133623969  1.0000
  O   O859      1.0  0.8236867291148817  0.24698903154189847  0.8110827612605787  1.0000
  O   O860      1.0  0.8832183270901318  0.19997252930310677  0.5194858848715291  1.0000
  Si  Si311     1.0  0.09260326762508067  0.6079938280596218  0.5063978198550683  1.0000
  O   O861      1.0  0.3745960036373586  0.019089936741990218  0.664038926548327  1.0000
  O   O862      1.0  0.47933814187858026  0.8688322549680461  0.3399490288784128  1.0000
  Si  Si312     1.0  0.42229519170785773  0.8027599225300727  0.8877445973053907  1.0000
  O   O863      1.0  0.93163192448399  0.17692634567704946  0.32855575835954176  1.0000
  O   O864      1.0  0.5360580152201625  0.9231008671252204  0.21692356007646096  1.0000
  Si  Si313     1.0  0.9690032137305395  0.7531422052900887  0.9715761717881582  1.0000
  O   O865      1.0  0.31465897798357395  0.99252271887145  0.39334961024860177  1.0000
  O   O866      1.0  0.9019036824996279  0.1047475000981785  0.049199519607277906  1.0000
  Si  Si314     1.0  0.9631495151565947  0.6756901487421225  0.03277464809787172  1.0000
  O   O867      1.0  0.6457681756055778  0.020737179901039893  0.10637678573907275  1.0000
  O   O868      1.0  0.4060834080607632  0.936726067667539  0.3036440107970104  1.0000
  Si  Si315     1.0  0.16037876514991264  0.8803682966321305  0.7968447369418944  1.0000
  O   O869      1.0  0.7410488096503087  0.8935307815138761  0.9476028461858219  1.0000
  O   O870      1.0  0.7677619692460288  0.19668409641618642  0.3369534512563747  1.0000
  Si  Si316     1.0  0.24103910169559434  0.3078320024166304  0.07935059095164745  1.0000
  O   O871      1.0  0.17532681067247624  0.16045979491433127  0.18536337640005973  1.0000
  O   O872      1.0  0.3866044305048484  0.8934003044826186  0.057876464699019345  1.0000
  Si  Si317     1.0  0.15228036592109112  0.8104089798666493  0.5833081950235536  1.0000
  O   O873      1.0  0.8647710577403679  0.021350591062069803  0.07679068810213648  1.0000
  O   O874      1.0  0.7076403866216644  0.1980239320981336  0.5329424254476166  1.0000
  Si  Si318     1.0  0.8599002196476649  0.7257305737753889  0.865154289563607  1.0000
  O   O875      1.0  0.03631747027624663  0.2777305480761889  0.32121665206599  1.0000
  O   O876      1.0  0.9743653902457636  0.25250051883412844  0.9131816744502951  1.0000
  Si  Si319     1.0  0.9149427834267211  0.659932032306226  0.6004771594123584  1.0000
  O   O877      1.0  0.0622517501434777  0.8064599336719918  0.861845367420461  1.0000
  O   O878      1.0  0.27983130566387054  0.9857585989460859  0.5253985464887332  1.0000
  Si  Si320     1.0  0.9607156570255023  0.12103313566632981  0.43674738603559515  1.0000
  O   O879      1.0  0.06566000270071666  0.9494842582114262  0.10102639176999342  1.0000
  O   O880      1.0  0.5932655389540172  0.16489452489393527  0.4017299426233452  1.0000
  Si  Si321     1.0  0.522909516356341  0.8515125958666943  0.7353918661334126  1.0000
  O   O881      1.0  0.41663106837326136  0.11839328397084235  0.7969218943506619  1.0000
  O   O882      1.0  0.724820902612691  0.12169954218180065  0.3088078907137831  1.0000
  Si  Si322     1.0  0.034977206614735766  0.9727822378493648  0.4948356385052711  1.0000
  O   O883      1.0  0.16204054101026416  0.002182135617334646  0.19539236389827977  1.0000
  O   O884      1.0  0.46193897035949955  0.8137740216887868  0.3904682172529201  1.0000
  Si  Si323     1.0  0.32730450056781585  0.2725913495030755  0.42640206045116835  1.0000
  O   O885      1.0  0.44184554120319736  0.11633115896861351  0.3297339369666441  1.0000
  O   O886      1.0  0.7401550480169543  0.9474856157285759  0.28646746270601686  1.0000
  Si  Si324     1.0  0.6937175712492443  0.6151177755261242  0.7321389378603442  1.0000
  O   O887      1.0  0.15141183094072191  0.06762769564892483  0.7789088094813361  1.0000
  O   O888      1.0  0.4083822550604278  0.2687732682824043  0.9634446054795546  1.0000
  Si  Si325     1.0  0.05755825279153601  0.9424011349910599  0.9413635395650165  1.0000
  O   O889      1.0  0.9338832785743361  0.3289227025399032  0.4731423456388601  1.0000
  O   O890      1.0  0.8096781394252662  0.7193604569873508  0.28239188417799244  1.0000
  Si  Si326     1.0  0.18893042440565455  0.09896742788439584  0.07373399287156117  1.0000
  O   O891      1.0  0.21154427045547827  0.13109971204963156  0.44812333362942774  1.0000
  O   O892      1.0  0.7317120485739033  0.17225920135446257  0.721894178587881  1.0000
  Si  Si327     1.0  0.6715914135443092  0.7028281881408095  0.5733573364611636  1.0000
  O   O893      1.0  0.17911079996433565  0.5269557734478537  0.2050812904732  1.0000
  O   O894      1.0  0.798636673696478  0.9356997709288352  0.43200642294673014  1.0000
  Si  Si328     1.0  0.8904617471700119  0.0924469597174396  0.8959053697933788  1.0000
  O   O895      1.0  0.10495155949301747  0.43333881581231276  0.8871764452777798  1.0000
  O   O896      1.0  0.932936890898743  0.281847446161906  0.8364751393447618  1.0000
  Si  Si329     1.0  0.9000654354002071  0.8986185941066521  0.33410263498414405  1.0000
  O   O897      1.0  0.6276342939215017  0.8000877787269953  0.8307554319496521  1.0000
  O   O898      1.0  0.769412147342688  0.9734338089668091  0.9002389593774865  1.0000
  Si  Si330     1.0  0.8963855628570513  0.9195641964309446  0.7159865120005753  1.0000
  O   O899      1.0  0.7437248406882205  0.12128985761688352  0.7600704016079896  1.0000
  O   O900      1.0  0.9466954273394986  0.9158381476077098  0.4897324945704596  1.0000
  Si  Si331     1.0  0.054467012660629165  0.35986018052197516  0.5593034732650657  1.0000
  O   O901      1.0  0.015830535653758172  0.7251484712685167  0.7962944179761605  1.0000
  O   O902      1.0  0.2596963507491717  0.18398606478212143  0.13495031555294482  1.0000
  Si  Si332     1.0  0.6803561140684348  0.8980386168473194  0.2163505360842536  1.0000
  O   O903      1.0  0.8171775348553615  0.5353356273664733  0.9738521826999188  1.0000
  O   O904      1.0  0.42600126645517067  0.11142658709855978  0.6005665852018809  1.0000
  Si  Si333     1.0  0.9436294081984951  0.8180775214879575  0.951378820239549  1.0000
  O   O905      1.0  0.848133802541228  0.6460099446591008  0.6706346204555278  1.0000
  O   O906      1.0  0.9993669014228381  0.8035408293655978  0.3172162078773037  1.0000
  Si  Si334     1.0  0.16259886861469322  0.6568228713897405  0.20139496710993887  1.0000
  O   O907      1.0  0.04332151118369469  0.11764063320548271  0.5039329206859308  1.0000
  O   O908      1.0  0.34725713496164845  0.04556138898850282  0.15858721359808772  1.0000
  Si  Si335     1.0  0.9973963996469989  0.5916303208638606  0.9122352353040024  1.0000
  O   O909      1.0  0.3806388417145736  0.9440253690149986  0.3971659258576491  1.0000
  O   O910      1.0  0.8954949333926454  0.6950637193230661  0.24898200459467873  1.0000
  Si  Si336     1.0  0.21262170722609797  0.3263932967685858  0.6583798986268192  1.0000
  O   O911      1.0  0.7064127737076586  0.6571463217355794  0.9514295311621311  1.0000
  O   O912      1.0  0.00716268976162092  0.5513256663910101  0.3145885452078854  1.0000
  Si  Si337     1.0  0.423467466246647  0.04462895152124792  0.7391627230232154  1.0000
  O   O913      1.0  0.5655377324991777  0.16644053428738978  0.0021277043923719234  1.0000
  O   O914      1.0  0.4760482448704955  0.1411140499664952  0.5589297376521747  1.0000
  Si  Si338     1.0  0.17274880459047046  0.5147508279246102  0.9430433202034308  1.0000
  O   O915      1.0  0.8852962785947681  0.9421568261970649  0.9469799531599488  1.0000
  O   O916      1.0  0.09096524056674217  0.5887680300420992  0.03934610962325196  1.0000
  Si  Si339     1.0  0.015276595029092545  0.39940540960909676  0.6502411178857398  1.0000
  O   O917      1.0  0.7340407849800632  0.6511403761671047  0.6929244393302555  1.0000
  O   O918      1.0  0.6165130539665389  0.7639425117438222  0.07229151564015494  1.0000
  Si  Si340     1.0  0.7162076154597501  0.9156846376536444  0.4950211256055567  1.0000
  O   O919      1.0  0.9221689062137073  0.1725199839252844  0.23333137801361462  1.0000
  O   O920      1.0  0.055247432737532416  0.3969592808190631  0.27153528050288944  1.0000
  Si  Si341     1.0  0.10525373861234302  0.7087004854821352  0.25028343521759266  1.0000
  O   O921      1.0  0.41321480352104273  0.2059095711628912  0.6871062270588064  1.0000
  O   O922      1.0  0.32252711130035133  0.206080975420191  0.48261487577509893  1.0000
  Si  Si342     1.0  0.9048112742830637  0.3705337810746676  0.26123387787726615  1.0000
  O   O923      1.0  0.045652782696388984  0.8462433851221608  0.6865094827261916  1.0000
  O   O924      1.0  0.19980909510873535  0.14180532347049524  0.7843053750565553  1.0000
  Si  Si343     1.0  0.8486193136987618  0.3677194596319965  0.853335405680685  1.0000
  O   O925      1.0  0.11027794996074701  0.13115938713955472  0.1823434453804137  1.0000
  O   O926      1.0  0.7917833628114772  0.06905511876903056  0.7307474334941156  1.0000
  Si  Si344     1.0  0.6781620021413131  0.14054710154166347  0.5764400422326216  1.0000
  O   O927      1.0  0.03701114177040684  0.0784596687044112  0.7516774555798845  1.0000
  O   O928      1.0  0.9890916647760681  0.5322628955061276  0.2354847762560567  1.0000
  Si  Si345     1.0  0.8017850753548347  0.7240692414843463  0.343867027357487  1.0000
  O   O929      1.0  0.8995493394685081  0.3745341899926449  0.19887330327661382  1.0000
  O   O930      1.0  0.6935217756473632  0.12118061209030226  0.04831782329156662  1.0000
  Si  Si346     1.0  0.23315200689369286  0.3162486951863475  0.3769472291505507  1.0000
  O   O931      1.0  0.14366885402073884  0.653104851812577  0.4044056015377226  1.0000
  O   O932      1.0  0.9447149688287318  0.009412974696665553  0.4412600858704649  1.0000
  Si  Si347     1.0  0.7448263380647276  0.1286624528772937  0.2726154177485791  1.0000
  O   O933      1.0  0.09066326534342886  0.414714083227716  0.2325287071333244  1.0000
  O   O934      1.0  0.19626071796321712  0.30819211048279  0.9035255211484791  1.0000
  Si  Si348     1.0  0.6973961926574994  0.17562974617333868  0.5094042460231896  1.0000
  O   O935      1.0  0.5888230787426526  0.793071448281114  0.5302918333397588  1.0000
  O   O936      1.0  0.8502985835139579  0.9597884996309215  0.5525822931049457  1.0000
  Si  Si349     1.0  0.15547731124049266  0.6431504886023833  0.7954551369524557  1.0000
  O   O937      1.0  0.9522203209284742  0.9304907425463983  0.6264829011725012  1.0000
  O   O938      1.0  0.5588021853055426  0.0570362537663124  0.14089425117700596  1.0000
  Si  Si350     1.0  0.9678597614254216  0.6354329080131675  0.3169032589245974  1.0000
  O   O939      1.0  0.03856133031934138  0.40410477244308524  0.9619699838470808  1.0000
  O   O940      1.0  0.7625477595338007  0.5726498154144336  0.9618457633183316  1.0000
  Si  Si351     1.0  0.36239960714138564  0.8492152626391372  0.7112243968781817  1.0000
  O   O941      1.0  0.8824218284952845  0.764396240022058  0.9910979052950594  1.0000
  O   O942      1.0  0.08719489499014307  0.9615754550835859  0.5932084148134943  1.0000
  Si  Si352     1.0  0.19089860550822513  0.5069470467381514  0.051894080259012695  1.0000
  O   O943      1.0  0.16556903208908494  0.8795931174916799  0.515175491193097  1.0000
  O   O944      1.0  0.0013299124294294255  0.3400594165454791  0.17558788254550473  1.0000
  Si  Si353     1.0  0.08269242797342011  0.13359831194012264  0.9648321923976723  1.0000
  O   O945      1.0  0.22998638753580047  0.08951907009480631  0.745757002392596  1.0000
  O   O946      1.0  0.22364212817300594  0.4982212342619807  0.7023327879592991  1.0000
  Si  Si354     1.0  0.9038366391687298  0.7376236047402231  0.03210825264794508  1.0000
  O   O947      1.0  0.25427297004808247  0.8373728676049892  0.9831889850573452  1.0000
  O   O948      1.0  0.21704349872388498  0.8315930842284475  0.5225513025747311  1.0000
  Si  Si355     1.0  0.24687126352740085  0.42554497420940146  0.7656967685764786  1.0000
  O   O949      1.0  0.4137034727778374  0.03922309621615999  0.7954411770716614  1.0000
  O   O950      1.0  0.9555717611356961  0.7836767427937001  0.9385834305867043  1.0000
  Si  Si356     1.0  0.7006785634788733  0.028766523680501914  0.36995164392695185  1.0000
  O   O951      1.0  0.8470938561927926  0.5225375486706657  0.24634059590172822  1.0000
  O   O952      1.0  0.7473970703613377  0.8343070499124287  0.46431556318919903  1.0000
  Si  Si357     1.0  0.014954652851626818  0.17345956050386208  0.10286245176597607  1.0000
  O   O953      1.0  0.8917090374684277  0.2805239964870142  0.7841291893454082  1.0000
  O   O954      1.0  0.37002584544860506  0.16491614944343944  0.8354939375300197  1.0000
  Si  Si358     1.0  0.08066742396779102  0.6628993769283594  0.7028455822943557  1.0000
  O   O955      1.0  0.5904993723418053  0.8563128281961774  0.18078055062591838  1.0000
  O   O956      1.0  0.5712514850629864  0.07894796580225204  0.9055512022866735  1.0000
  Si  Si359     1.0  0.3026982890744446  0.11890910647265616  0.2242919728090944  1.0000
  O   O957      1.0  0.4394941861790425  0.8445687197729075  0.30083927141808875  1.0000
  O   O958      1.0  0.5480674845444604  0.9499813617150706  0.7869188794053744  1.0000
  Si  Si360     1.0  0.8763026219390401  0.9684949076613872  0.5646754890259766  1.0000
  O   O959      1.0  0.23188285485283958  0.18429796152055047  0.30948981309379436  1.0000
  O   O960      1.0  0.6916642071881287  0.9452598666987243  0.46566947149603005  1.0000
  Si  Si361     1.0  0.778728906516943  0.23449800730739134  0.430160877170447  1.0000
  O   O961      1.0  0.8750021124184456  0.9327458483101055  0.3445524110469204  1.0000
  O   O962      1.0  0.21817562951161473  0.13082697311532213  0.6246724061446319  1.0000
  Si  Si362     1.0  0.21348456892981113  0.16518983739468873  0.7714832356189733  1.0000
  O   O963      1.0  0.08001852198755112  0.9821789297818146  0.2092648485055357  1.0000
  O   O964      1.0  0.15751781549649835  0.22817663056463144  0.568400119998518  1.0000
  Si  Si363     1.0  0.8975816407925686  0.4565543997987906  0.18424418676266208  1.0000
  O   O965      1.0  0.6882135069040493  0.7859040191964507  0.005541066033566468  1.0000
  O   O966      1.0  0.2658846281380829  0.19293077062145625  0.6110982686522173  1.0000
  Si  Si364     1.0  0.9853803443524416  0.8687541974028097  0.782633559296187  1.0000
  O   O967      1.0  0.7020683056962227  0.985708488636914  0.7474880060258918  1.0000
  O   O968      1.0  0.9900308593504064  0.9500530675447724  0.6422855413433345  1.0000
  Si  Si365     1.0  0.10316755403654312  0.15698479900275153  0.13918068678723375  1.0000
  O   O969      1.0  0.21242447794633357  0.27369318575082535  0.25474343887246265  1.0000
  O   O970      1.0  0.7288520307404885  0.7777919743654883  0.8661538076548337  1.0000
  Si  Si366     1.0  0.725341908025886  0.17062720376101345  0.35693888218706155  1.0000
  O   O971      1.0  0.14933193844557396  0.4479506166932347  0.9339692487223813  1.0000
  O   O972      1.0  0.9525841658979094  0.1664574863629039  0.0022932759890579883  1.0000
  Si  Si367     1.0  0.7668639417895395  0.07111880869856962  0.04142405377953988  1.0000
  O   O973      1.0  0.08399564650294755  0.6839869854116143  0.10477621978430722  1.0000
  O   O974      1.0  0.05523029509404782  0.22462057999901114  0.34807816861543883  1.0000
  Si  Si368     1.0  0.45416112921830637  0.903405510929105  0.050400404231424056  1.0000
  O   O975      1.0  0.1013231438285106  0.7059413020373813  0.38099638037691136  1.0000
  O   O976      1.0  0.18359254245138312  0.34742407149833604  0.5216471023935905  1.0000
  Si  Si369     1.0  0.12406494687163126  0.32575884347738787  0.24066308183888796  1.0000
  O   O977      1.0  0.38075088818775715  0.008531241050795928  0.2696320800837275  1.0000
  O   O978      1.0  0.9540683031416716  0.6944396931096685  0.6161063957723232  1.0000
  Si  Si370     1.0  0.7579146465754081  0.6179368531284687  0.7136771500854454  1.0000
  O   O979      1.0  0.7023908302003293  0.07530398146029425  0.14772517098687085  1.0000
  O   O980      1.0  0.8747715284118082  0.5884338453581944  0.19869754745338253  1.0000
  Si  Si371     1.0  0.2080964989083572  0.02929031665985273  0.2458201847613326  1.0000
  O   O981      1.0  0.0860061717161623  0.3438595881857091  0.5886654511990341  1.0000
  O   O982      1.0  0.26430895481950706  0.2366223826200231  0.7669063297937843  1.0000
  Si  Si372     1.0  0.13157518483439842  0.21650768407219578  0.9545053661749249  1.0000
  O   O983      1.0  0.6564100407350913  0.06595316086542156  0.1531369268533145  1.0000
  O   O984      1.0  0.9920899696735557  0.9170265831154452  0.9129555703210307  1.0000
  Si  Si373     1.0  0.5371290275557217  0.7974687282193507  0.15531272772872762  1.0000
  O   O985      1.0  0.27914291003397995  0.8403059542414959  0.14070568413540288  1.0000
  O   O986      1.0  0.016987404156151173  0.5709734428791196  0.8625516097788307  1.0000
  Si  Si374     1.0  0.7868870512498691  0.6145878060300467  0.29882481205475586  1.0000
  O   O987      1.0  0.01106094899524463  0.3764423444637344  0.6856458356791882  1.0000
  O   O988      1.0  0.8115995595613655  0.4881625131767072  0.591129529816832  1.0000
  Si  Si375     1.0  0.5924634075970121  0.16033767381006767  0.19752876462060764  1.0000
  O   O989      1.0  0.21462464883590876  0.4359963962466662  0.7409911732585232  1.0000
  O   O990      1.0  0.1278568932763612  0.21541405492322085  0.49990762474905753  1.0000
  Si  Si376     1.0  0.11112428586939808  0.898863644606198  0.8834543152439235  1.0000
  O   O991      1.0  0.6646113725002539  0.9780269893499397  0.1728432421064714  1.0000
  O   O992      1.0  0.7940066345321675  0.21084488397149556  0.4759497947220455  1.0000
  Si  Si377     1.0  0.05688555598210588  0.7757501485739177  0.5304099451543496  1.0000
  O   O993      1.0  0.13124105644121317  0.4131166623180985  0.9780296467463846  1.0000
  O   O994      1.0  0.9636592576668641  0.586025188753858  0.4999695118401697  1.0000
  Si  Si378     1.0  0.450460723742814  0.16628917405448806  0.5239538199085307  1.0000
  O   O995      1.0  0.2502497926904138  0.2833236372557977  0.9051023936476699  1.0000
  O   O996      1.0  0.20214199625229803  0.2863587080637202  0.1508821705578949  1.0000
  Si  Si379     1.0  0.2932464082873866  0.1029550477711726  0.06987086722014606  1.0000
  O   O997      1.0  0.14638557415513084  0.24453013621272546  0.06901050078382225  1.0000
  O   O998      1.0  0.09052969506980413  0.4629420691382133  0.25296269615737166  1.0000
  Si  Si380     1.0  0.10306636883541993  0.27166354308121266  0.37459337328599707  1.0000
  O   O999      1.0  0.32412467214496454  0.26504798727130424  0.20764415716030185  1.0000
  O   O1000     1.0  0.15373932164326598  0.10440615378919872  0.5096228637071398  1.0000
  Si  Si381     1.0  0.8590744224838243  0.9533153542071974  0.054974649502066104  1.0000
  O   O1001     1.0  0.23233651955113266  0.2973671780565094  0.6204291118210913  1.0000
  O   O1002     1.0  0.9126130554038794  0.7843667769534335  0.24176125204737242  1.0000
  Si  Si382     1.0  0.8051974204389812  0.2636971306192624  0.5778085327695288  1.0000
  O   O1003     1.0  0.22374953641087095  0.796553075642808  0.23427674981613386  1.0000
  O   O1004     1.0  0.9534663823630947  0.8775406638449788  0.8054470985992991  1.0000
  Si  Si383     1.0  0.7577554592084124  0.8322277966289947  0.8780712146071605  1.0000
  O   O1005     1.0  0.7764970628089575  0.517465754579513  0.9802371602952035  1.0000
  O   O1006     1.0  0.47860324339356425  0.9510585733965191  0.4765443249159504  1.0000
  Si  Si384     1.0  0.39348154421569825  0.15352876171352034  0.7884477650510451  1.0000
  O   O1007     1.0  0.26408150113091694  0.02313475049517438  0.9397409571342318  1.0000
  O   O1008     1.0  0.029320359797326032  0.6788374263162638  0.995904754998863  1.0000
  Si  Si385     1.0  0.5089472943549355  0.8970048936381455  0.006112377138253245  1.0000
  O   O1009     1.0  0.7778456359455623  0.49386950021501996  0.30445896672460404  1.0000
  O   O1010     1.0  0.00990995281972941  0.7591240756760732  0.14289000864825566  1.0000
  Si  Si386     1.0  0.8721200111462092  0.08285780884764712  0.7820712817840284  1.0000
  O   O1011     1.0  0.38572903941961967  0.8019019197144824  0.3465218900720619  1.0000
  O   O1012     1.0  0.9806102664678306  0.00986592717173382  0.27074554739201173  1.0000
  Si  Si387     1.0  0.5263291559038774  0.7939678434066947  0.0359506191002109  1.0000
  O   O1013     1.0  0.6996092244294501  0.13658314811558686  0.9605317258114673  1.0000
  O   O1014     1.0  0.14421633736273487  0.645291026678823  0.1661929211558223  1.0000
  Si  Si388     1.0  0.7546256534612059  0.020370282137023712  0.4347846500835805  1.0000
  O   O1015     1.0  0.166872779922251  0.4300058431748427  0.025556538134352488  1.0000
  O   O1016     1.0  0.06732666879008117  0.2775962000200537  0.9514345089837818  1.0000
  Si  Si389     1.0  0.5554051511830685  0.9769441901994035  0.042268146979791865  1.0000
  O   O1017     1.0  0.08855707449303814  0.7608340975908361  0.3894074501600644  1.0000
  O   O1018     1.0  0.3325036075027093  0.16902663278979144  0.20040853306333772  1.0000
  Si  Si390     1.0  0.046136930887731804  0.007107058127407562  0.21722261468632043  1.0000
  O   O1019     1.0  0.12372946826154493  0.12715390286579065  0.8230449882970242  1.0000
  O   O1020     1.0  0.19830471378607784  0.842784412508422  0.9840336630769996  1.0000
  Si  Si391     1.0  0.11381767768632166  0.4185628631853599  0.5368185562286237  1.0000
  O   O1021     1.0  0.1520445924130303  0.5004784608081018  0.2680937393940759  1.0000
  O   O1022     1.0  0.23193330029508943  0.3014732744653524  0.44062623874743617  1.0000
  Si  Si392     1.0  0.9697241064553089  0.25527607334337954  0.5722364264850891  1.0000
  O   O1023     1.0  0.6677680536326421  0.7482709084836111  0.25560496579404135  1.0000
  O   O1024     1.0  0.13195750194209563  0.21100974589996768  0.21805160763379727  1.0000
  Si  Si393     1.0  0.9265242219926559  0.4990913973028377  0.8671934739335155  1.0000
  O   O1025     1.0  0.6289611684456888  0.051797759304881064  0.9178126551607687  1.0000
  O   O1026     1.0  0.7273062107458226  0.6472010449119838  0.21345686928432928  1.0000
  Si  Si394     1.0  0.07311240155680868  0.48210445436064026  0.5692820332606644  1.0000
  O   O1027     1.0  0.16149723051841625  0.03436063142256674  0.6541643381700989  1.0000
  O   O1028     1.0  0.911700140077023  0.10444297376854164  0.35543643778676953  1.0000
  Si  Si395     1.0  0.12519000383314802  0.06321100950230032  0.8021932117851066  1.0000
  O   O1029     1.0  0.7600579998800426  0.9175446618990696  0.41025334120579365  1.0000
  O   O1030     1.0  0.9245608464876829  0.3872123331384622  0.2671370551468262  1.0000
  Si  Si396     1.0  0.31605036006750725  0.8567013091027454  0.9461300058848694  1.0000
  O   O1031     1.0  0.4721731839047959  0.17886426445545564  0.6439763248821702  1.0000
  O   O1032     1.0  0.0034008924069300526  0.3416370629694024  0.4806460908217946  1.0000
  Si  Si397     1.0  0.3781648570897609  0.8391671185697449  0.9717766227612562  1.0000
  O   O1033     1.0  0.42205740809065356  0.929658865195745  0.03083257098651543  1.0000
  O   O1034     1.0  0.8634699764883063  0.5834722953500703  0.09973897543458715  1.0000
  Si  Si398     1.0  0.2917873184600136  0.3162423947165995  0.33691517326316234  1.0000
  O   O1035     1.0  0.06598855644212084  0.1669722037484324  0.9816477530696666  1.0000
  O   O1036     1.0  0.10524312915615633  0.8413716258358085  0.38706989994197216  1.0000
  Si  Si399     1.0  0.07397961980272505  0.3784733031018052  0.9534690245047456  1.0000
  O   O1037     1.0  0.2621276585029177  0.4263210005728165  0.26566456658062854  1.0000
  O   O1038     1.0  0.9177280134328671  0.15166253193144524  0.8807778076159128  1.0000
  Si  Si400     1.0  0.8178848282310917  0.9657764231253888  0.5724917813264871  1.0000
  O   O1039     1.0  0.0376759054329404  0.4100282721029774  0.6729213311128525  1.0000
  O   O1040     1.0  0.10251109165621325  0.03713225688570852  0.48422901528685064  1.0000
  Si  Si401     1.0  0.2012227743727778  0.2028445895803047  0.26982109544297195  1.0000
  O   O1041     1.0  0.9291671056354646  0.9605352877256012  0.4252952459717298  1.0000
  O   O1042     1.0  0.6584023179527995  0.7189791829311065  0.9727044720672747  1.0000
  Si  Si402     1.0  0.9930881949795302  0.5695514915442176  0.1047873147717813  1.0000
  O   O1043     1.0  0.17590298967605408  0.9730805227933601  0.3851628345760932  1.0000
  O   O1044     1.0  0.49756953207972493  0.03124005580436596  0.4390272400350485  1.0000
  Si  Si403     1.0  0.13917968645905981  0.34757013707634915  0.8325179561920222  1.0000
  O   O1045     1.0  0.5191791977014996  0.9823500733852898  0.22715860853078573  1.0000
  O   O1046     1.0  0.9370104949539189  0.24503636153861078  0.10612562633333503  1.0000
  Si  Si404     1.0  0.22516389467512746  0.8876368312914324  0.30330579621198295  1.0000
  O   O1047     1.0  0.8362311078276511  0.2782230342203925  0.8975312675478447  1.0000
  O   O1048     1.0  0.9999126852301176  0.08395752640770655  0.12294328196049134  1.0000
  Si  Si405     1.0  0.04140507963110846  0.05402684402043216  0.9111202989997853  1.0000
  O   O1049     1.0  0.020319739467189468  0.9594546662227462  0.7106561568253907  1.0000
  O   O1050     1.0  0.48165726467400455  0.9093916273844208  0.04515703118513219  1.0000
  Si  Si406     1.0  0.5357471057650884  0.07838038028045778  0.4519213268328274  1.0000
  O   O1051     1.0  0.17320592912728253  0.5391117685121465  0.7155638374249579  1.0000
  O   O1052     1.0  0.25113372963812874  0.0754503614498422  0.4562026080324918  1.0000
  Si  Si407     1.0  0.04519894945724785  0.01969159027280792  0.3320417034689367  1.0000
  O   O1053     1.0  0.4572928884053001  0.01652935169819224  0.729464417455245  1.0000
  O   O1054     1.0  0.3043496718738343  0.8078488193606168  0.829456993159991  1.0000
  Si  Si408     1.0  0.860249978999661  0.37731617172666226  0.7474776629821202  1.0000
  O   O1055     1.0  0.02891768739425373  0.3561565218291631  0.8826715033060609  1.0000
  O   O1056     1.0  0.9407664181989582  0.3621758709039984  0.7839659273923512  1.0000
  Si  Si409     1.0  0.45626954754606386  0.8838594879940408  0.38639640682981596  1.0000
  O   O1057     1.0  0.7889632495310452  0.3029231370276184  0.8390516302120334  1.0000
  O   O1058     1.0  0.12387168400016466  0.08387008415500988  0.08983996222457605  1.0000
  Si  Si410     1.0  0.6832250796401204  0.8284868082347357  0.7738207878918298  1.0000
  O   O1059     1.0  0.7650598424179486  0.09945343100676225  0.5562814141000503  1.0000
  O   O1060     1.0  0.6675650745092581  0.09227553601702795  0.2345516930845504  1.0000
  Si  Si411     1.0  0.09147412215749384  0.2944464837133141  0.18266671977062732  1.0000
  O   O1061     1.0  0.2708364589348077  0.13822464996774686  0.3664996056130259  1.0000
  O   O1062     1.0  0.3821701915737674  0.2403641375775059  0.5207004070366319  1.0000
  Si  Si412     1.0  0.8938990173417434  0.004520899400805892  0.11861472096484785  1.0000
  O   O1063     1.0  0.8083578920718111  0.36381318647184097  0.9877779862534878  1.0000
  O   O1064     1.0  0.38376920635544404  0.2392892713380736  0.9180036179550318  1.0000
  Si  Si413     1.0  0.5944132614975534  0.8547251347976839  0.36325802538749125  1.0000
  O   O1065     1.0  0.36075983658393934  0.8015074099659568  0.8317312628233265  1.0000
  O   O1066     1.0  0.2565837405317974  0.9085595934848247  0.6106131858503248  1.0000
  Si  Si414     1.0  0.04092147120351998  0.9879219244015869  0.806243092021717  1.0000
  O   O1067     1.0  0.6957928826188542  0.6869649642199258  0.4605213660613842  1.0000
  O   O1068     1.0  0.42785528211605256  0.8311631377466634  0.8910874020183869  1.0000
  Si  Si415     1.0  0.8566109186850686  0.2854801833662107  0.0527561629475997  1.0000
  O   O1069     1.0  0.47989778586045617  0.9923387792667764  0.15095214746621746  1.0000
  O   O1070     1.0  0.8881350843432014  0.22618747819878837  0.6304318921946255  1.0000
  Si  Si416     1.0  0.023759545802782913  0.2520375117812047  0.051481544010211475  1.0000
  O   O1071     1.0  0.022171136982140432  0.9016237728265232  0.22768583200796466  1.0000
  O   O1072     1.0  0.1991161955130242  0.8351866246660147  0.3135388792004041  1.0000
  Si  Si417     1.0  0.4122999129668802  0.13502820367249888  0.36775762022810965  1.0000
  O   O1073     1.0  0.6176817133264615  0.7272724377402894  0.14137193285157526  1.0000
  O   O1074     1.0  0.51082975157243  0.06265350119138724  0.09132230229295484  1.0000
  Si  Si418     1.0  0.17429547869762968  0.07495278543254962  0.7462585393702427  1.0000
  O   O1075     1.0  0.08801126605600185  0.4886666697271727  0.8553988452658592  1.0000
  O   O1076     1.0  0.7820789972667498  0.9963408169116291  0.40190542142778835  1.0000
  Si  Si419     1.0  0.01811764459985249  0.1716265606779386  0.4019775022844008  1.0000
  O   O1077     1.0  0.899689985283907  0.39275298396965613  0.5488558868795168  1.0000
  O   O1078     1.0  0.3878966030654318  0.8740814350800722  0.46629885540086435  1.0000
  Si  Si420     1.0  0.7956479681404667  0.14406458398431726  0.532896682523895  1.0000
  O   O1079     1.0  0.7985498036510957  0.13013925325934736  0.06327900696469708  1.0000
  O   O1080     1.0  0.775620468361382  0.5966667591652697  0.3368200723752856  1.0000
  Si  Si421     1.0  0.14296002970960664  0.1828012812750035  0.4726357558096337  1.0000
  O   O1081     1.0  0.9883043575529138  0.514899297926898  0.599504195222551  1.0000
  O   O1082     1.0  0.14156245335035247  0.39229689584423055  0.5691048320497814  1.0000
  Si  Si422     1.0  0.3102560872859098  0.2908998289578247  0.6013303381607358  1.0000
  O   O1083     1.0  0.3346407901692384  0.19189261737518667  0.9132266502495469  1.0000
  O   O1084     1.0  0.8717087776924551  0.6740456802858995  0.7197818378085304  1.0000
  Si  Si423     1.0  0.2870232892620887  0.24290551055837176  0.07846278839716517  1.0000
  O   O1085     1.0  0.7970275977207224  0.8805724397382511  0.6868588927196158  1.0000
  O   O1086     1.0  0.13966448976701204  0.7089102905040162  0.5595189771620797  1.0000
  Si  Si424     1.0  0.8235003964841088  0.962863417861929  0.1450145645879062  1.0000
  O   O1087     1.0  0.9530901843849144  0.3979479068205148  0.7146515062068203  1.0000
  O   O1088     1.0  0.8740187313722038  0.0842462617619042  0.22662389280184872  1.0000
  Si  Si425     1.0  0.4012730834873554  0.22212048144304572  0.5690711443363766  1.0000
  O   O1089     1.0  0.8872776341925562  0.046059665370404825  0.4221845329869732  1.0000
  O   O1090     1.0  0.6496055431841102  0.8985720239540645  0.2036520361910898  1.0000
  Si  Si426     1.0  0.26690898206930885  0.3337230196577057  0.685862917109784  1.0000
  O   O1091     1.0  0.8336180985163261  0.0223652775899069  0.9587562939983679  1.0000
  O   O1092     1.0  0.8216049185353692  0.8547525072940433  0.8705044490402523  1.0000
  Si  Si427     1.0  0.6916987011645539  0.9473574359727771  0.19916909608208266  1.0000
  O   O1093     1.0  0.47819611349092705  0.9362047168063711  0.19277162527010216  1.0000
  O   O1094     1.0  0.6865846607811559  0.05203290932450276  0.3211756474638421  1.0000
  Si  Si428     1.0  0.030204364248627998  0.9837901212774208  0.6980769357628508  1.0000
  O   O1095     1.0  0.4495300275182503  0.055248984479265774  0.5500019279026092  1.0000
  O   O1096     1.0  0.8120986745600088  0.845100971539923  0.1500368581813745  1.0000
  Si  Si429     1.0  0.9629115426764603  0.9439560392591644  0.4043539164166014  1.0000
  O   O1097     1.0  0.6683615839299949  0.9474423088324619  0.8017657957894875  1.0000
  O   O1098     1.0  0.36373466634764495  0.13101152743209032  0.023195904351421878  1.0000
  Si  Si430     1.0  0.11014437426504649  0.97732501503386  0.37439189537086026  1.0000
  O   O1099     1.0  0.12195915920849454  0.5580643065832027  0.7623205469645745  1.0000
  O   O1100     1.0  0.5910019900082885  0.8843105691687637  0.3355407612705387  1.0000
  Si  Si431     1.0  0.2210402522114631  0.8955879984623331  0.4271187577539279  1.0000
  O   O1101     1.0  0.7717298422674127  0.9544868740319385  0.35728525080006696  1.0000
  O   O1102     1.0  0.2067818611842309  0.41373076281663645  0.6520632438281996  1.0000
  Si  Si432     1.0  0.8156848903881841  0.3531296528610689  0.9294905658686339  1.0000
  O   O1103     1.0  0.9329365364486677  0.6245780724068698  0.10513150100348483  1.0000
  O   O1104     1.0  0.33619419266515904  0.14256410968433397  0.33851085297303013  1.0000
  Si  Si433     1.0  0.9575908290693299  0.7038981124139616  0.4379918359773576  1.0000
  O   O1105     1.0  0.17088632331392653  0.005771657341183942  0.5673702306881129  1.0000
  O   O1106     1.0  0.5898517914459915  0.10196244104010603  0.4852266649118221  1.0000
  Si  Si434     1.0  0.031853620716590335  0.38486023006923964  0.2746850387798785  1.0000
  O   O1107     1.0  0.7933492892218862  0.5229710224024205  0.7927618939107314  1.0000
  O   O1108     1.0  0.23243532447482665  0.862933100537938  0.6948117964849466  1.0000
  Si  Si435     1.0  0.7866616547207844  0.5398981556552119  0.949969000031562  1.0000
  O   O1109     1.0  0.6991873287205236  0.8957007941420033  0.7552365572843748  1.0000
  O   O1110     1.0  0.07740575952529553  0.06045370212571303  0.6790907220071248  1.0000
  Si  Si436     1.0  0.7066551297212229  0.6584638808552679  0.41970281200850107  1.0000
  O   O1111     1.0  0.3984676633052687  0.11360491311499411  0.37773858305450786  1.0000
  O   O1112     1.0  0.6715228657184306  0.7718456308236916  0.3670793379486528  1.0000
  Si  Si437     1.0  0.9720686884384897  0.47543892127296145  0.5057656531054711  1.0000
  O   O1113     1.0  0.3731247480730206  0.08261056785917953  0.3238786349753722  1.0000
  O   O1114     1.0  0.3847385799146797  0.2847859369547758  0.8740012679806172  1.0000
  Si  Si438     1.0  0.8523026891161715  0.2147184931505593  0.8204772317259864  1.0000
  O   O1115     1.0  0.8931011432445741  0.432299604610492  0.33011589779110057  1.0000
  O   O1116     1.0  0.18532808372043577  0.9786658795652692  0.7355729233167904  1.0000
  Si  Si439     1.0  0.11062566097911625  0.7299063863193771  0.3606734219461651  1.0000
  O   O1117     1.0  0.6125569615735724  0.8233734899693482  0.4818847022483534  1.0000
  O   O1118     1.0  0.9032129493595282  0.14128225979158862  0.5551790826200846  1.0000
  Si  Si440     1.0  0.9028299651165912  0.6362290145668609  0.07300952627191774  1.0000
  O   O1119     1.0  0.9358464223701315  0.23049356902781373  0.830681894792802  1.0000
  O   O1120     1.0  0.41912405142990417  0.9696287578266403  0.8284221508484696  1.0000
  Si  Si441     1.0  0.10358286136946598  0.8771378854403197  0.5818067866984  1.0000
  O   O1121     1.0  0.7194605445231662  0.20544951041400303  0.3744128731553355  1.0000
  O   O1122     1.0  0.7327552878487131  0.600892325278713  0.2734761439903855  1.0000
  Si  Si442     1.0  0.5593853351703967  0.7859336759369234  0.6355412055244787  1.0000
  O   O1123     1.0  0.11595347456896962  0.8044304618885023  0.1978547259369504  1.0000
  O   O1124     1.0  0.10758385628261334  0.7286914777468259  0.2982434053478049  1.0000
  Si  Si443     1.0  0.875790659093551  0.4085933872889687  0.8867910190413415  1.0000
  O   O1125     1.0  0.8398472188255356  0.23571290832790198  0.9563210599655431  1.0000
  O   O1126     1.0  0.13830174027267644  0.5646220592286066  0.13107839154803827  1.0000
  Si  Si444     1.0  0.7739757206764895  0.7279112841516808  0.17467029483559937  1.0000
  O   O1127     1.0  0.3717768769787457  0.2959697163674111  0.5263831971472553  1.0000
  O   O1128     1.0  0.6747213576632407  0.03286295201957655  0.40809926182710393  1.0000
  Si  Si445     1.0  0.050258933742637193  0.12652846280281907  0.5614450254923629  1.0000
  O   O1129     1.0  0.01135475843774505  0.8367645850619768  0.8053479346649819  1.0000
  O   O1130     1.0  0.9758893281567982  0.3265874309670893  0.09524447327101897  1.0000
  Si  Si446     1.0  0.30876667765204463  0.06908900518114285  0.9738668351721552  1.0000
  O   O1131     1.0  0.839251626394331  0.8986424083025166  0.24420792344231312  1.0000
  O   O1132     1.0  0.13322548045358226  0.6914696961616232  0.10757385838281033  1.0000
  Si  Si447     1.0  0.8308803314641305  0.8221895176191151  0.3266364235954694  1.0000
  O   O1133     1.0  0.8364695695052822  0.8854546574086333  0.9584099243054841  1.0000
  O   O1134     1.0  0.34626873034879907  0.7912325829632773  0.3833488367392328  1.0000
  Si  Si448     1.0  0.639142055744541  0.7006516045413265  0.8453332321364201  1.0000
  O   O1135     1.0  0.2358770367412457  0.022334685371104643  0.28685450358848646  1.0000
  O   O1136     1.0  0.5977331140029785  0.9496115431604983  0.446004485296074  1.0000
  Si  Si449     1.0  0.627698335293376  0.12529554858908107  0.8820943683354907  1.0000
  O   O1137     1.0  0.6860778056558441  0.8663945460699551  0.48978832843545966  1.0000
  O   O1138     1.0  0.5105295217641318  0.7957165987962058  0.1894777696572774  1.0000
  Si  Si450     1.0  0.8139992684087564  0.6179837936341578  0.8836204402419124  1.0000
  O   O1139     1.0  0.2335310277881045  0.23300605884346473  0.6888972982772349  1.0000
  O   O1140     1.0  0.17971050690994678  0.13637892329356052  0.9576534449281278  1.0000
  Si  Si451     1.0  0.06216153763415014  0.5869310898121014  0.5881039245847666  1.0000
  O   O1141     1.0  0.31118468041799935  0.26008397320263604  0.9409860461054496  1.0000
  O   O1142     1.0  0.9669059852627325  0.4015303057591915  0.4469470920262803  1.0000
  Si  Si452     1.0  0.0036624857876465405  0.10462122281966238  0.25393801453466947  1.0000
  O   O1143     1.0  0.8622582144790469  0.9221177713814149  0.035258685065642274  1.0000
  O   O1144     1.0  0.7304189101279482  0.6287692497318936  0.8528378445326884  1.0000
  Si  Si453     1.0  0.16650604267185157  0.44167008107711575  0.08116640143239211  1.0000
  O   O1145     1.0  0.18661650511861738  0.663975612124239  0.05326126836329652  1.0000
  O   O1146     1.0  0.13106274443103202  0.3098645232907751  0.652021775321655  1.0000
  Si  Si454     1.0  0.664788889861722  0.7160753162330838  0.46498800232133064  1.0000
  O   O1147     1.0  0.9001589798328339  0.7764603308300344  0.891264093775476  1.0000
  O   O1148     1.0  0.47263439423693804  0.836508398006279  0.8358535059184818  1.0000
  Si  Si455     1.0  0.39501609450398456  0.9525367491029043  0.9936074023101319  1.0000
  O   O1149     1.0  0.7955824394924595  0.5174481049909997  0.06894184855454083  1.0000
  O   O1150     1.0  0.08931811265092386  0.9798613288756394  0.9647427972438367  1.0000
  Si  Si456     1.0  0.41881928385751005  0.9286505450586723  0.7175006306057871  1.0000
  O   O1151     1.0  0.2126982186253433  0.5442338733887255  0.646725937597546  1.0000
  O   O1152     1.0  0.6697586141138192  0.03921820533432528  0.8495358768315695  1.0000
  Si  Si457     1.0  0.31345541057936205  0.8330178951549376  0.1368635940269232  1.0000
  O   O1153     1.0  0.859029618624678  0.8100943705400729  0.28717293472390204  1.0000
  O   O1154     1.0  0.38730881343983276  0.20330209321951306  0.5899642548497637  1.0000
  Si  Si458     1.0  0.2973910680097497  0.9093269851518372  0.873240119144371  1.0000
  O   O1155     1.0  0.6380788960735271  0.7876604351970841  0.661098743105949  1.0000
  O   O1156     1.0  0.9690231879011724  0.9168207622096817  0.3669736980137339  1.0000
  Si  Si459     1.0  0.3930301725340745  0.23911536200394984  0.10035009154805266  1.0000
  O   O1157     1.0  0.7476687683663182  0.6977932383162228  0.5279003703382095  1.0000
  O   O1158     1.0  0.9566256823458025  0.6696362699807532  0.7348909643443287  1.0000
  Si  Si460     1.0  0.7640536423757495  0.945185768121788  0.4200616961222559  1.0000
  O   O1159     1.0  0.5545362446222735  0.8669991051703575  0.6498470706501983  1.0000
  O   O1160     1.0  0.005108705161131939  0.532745731737686  0.4765799947578564  1.0000
  Si  Si461     1.0  0.026709348322526603  0.5431215578005408  0.7155461616385097  1.0000
  O   O1161     1.0  0.8748295799094706  0.15928206814101653  0.09260177765253844  1.0000
  O   O1162     1.0  0.06358926922790799  0.603765326046232  0.6388113939082967  1.0000
  Si  Si462     1.0  0.22162498009647977  0.006873806207894611  0.857969188927337  1.0000
  O   O1163     1.0  0.8866343806201908  0.1272793764266549  0.6591999278885291  1.0000
  O   O1164     1.0  0.2863588899027682  0.8187712051118635  0.36574397058847563  1.0000
  Si  Si463     1.0  0.9846687521679357  0.6911429692655209  0.6384338779337879  1.0000
  O   O1165     1.0  0.3647220915981734  0.18428706338253395  0.2507792581453907  1.0000
  O   O1166     1.0  0.0018998669282516392  0.8129709340035841  0.11121859168784923  1.0000
  Si  Si464     1.0  0.14884294332648726  0.13663695656410457  0.8146547828601938  1.0000
  O   O1167     1.0  0.829752846354636  0.31832048932321066  0.062266963051934174  1.0000
  O   O1168     1.0  0.889175006161285  0.8825901566017893  0.29535567754519154  1.0000
  Si  Si465     1.0  0.6347739517013523  0.004956635091340668  0.14606594990792077  1.0000
  O   O1169     1.0  0.9481344716749966  0.8519085056141649  0.13569706521624228  1.0000
  O   O1170     1.0  0.06585542840350192  0.5615644836405871  0.4820590186477525  1.0000
  Si  Si466     1.0  0.5152192883675332  0.873240598900536  0.521164024566708  1.0000
  O   O1171     1.0  0.20390326076418636  0.8154031386520691  0.8440252547108691  1.0000
  O   O1172     1.0  0.8918508642865074  0.8217799957104756  0.8325844838759204  1.0000
  Si  Si467     1.0  0.5441283464810205  0.1221746761521751  0.0857785370699025  1.0000
  O   O1173     1.0  0.5423080647806029  0.9129967446472735  0.7203140504317834  1.0000
  O   O1174     1.0  0.5258471143254821  0.918123370740735  0.02204870319812052  1.0000
  Si  Si468     1.0  0.7971839681938705  0.031089295713657907  0.1716076280620891  1.0000
  O   O1175     1.0  0.06745374152166969  0.6005316104768617  0.2365359131070638  1.0000
  O   O1176     1.0  0.7235227134810539  0.007431337780383624  0.8137527037622566  1.0000
  Si  Si469     1.0  0.8083657922158661  0.7535884494739483  0.13253828717657348  1.0000
  O   O1177     1.0  0.9184132635929302  0.4972180829226112  0.9267418308405689  1.0000
  O   O1178     1.0  0.5903412549835524  0.1087142874663398  0.602875258752034  1.0000
  Si  Si470     1.0  0.1828781060174575  0.3955706897728014  0.7854982825512792  1.0000
  O   O1179     1.0  0.476219586858247  0.13497806127554932  0.25213248125412074  1.0000
  O   O1180     1.0  0.07752533141242893  0.5034228069630995  0.4551182326059479  1.0000
  Si  Si471     1.0  0.4237463492874504  0.09091048407044162  0.5547610455315133  1.0000
  O   O1181     1.0  0.1925191510944266  0.6971926458578245  0.30655344356026415  1.0000
  O   O1182     1.0  0.14705950899391032  0.6059587213595944  0.9100196402909674  1.0000
  Si  Si472     1.0  0.8407295341442471  0.401189024752137  0.31544305253711646  1.0000
  O   O1183     1.0  0.7331205659466674  0.14028545233251202  0.2157259793054903  1.0000
  O   O1184     1.0  0.1964878475900483  0.019656095985250793  0.4033170017242957  1.0000
  Si  Si473     1.0  0.7199363112505658  0.9053471113465024  0.9998956833659757  1.0000
  O   O1185     1.0  0.1784735853676091  0.9087369534403381  0.1868748680887267  1.0000
  O   O1186     1.0  0.7469975648785917  0.1448513339703754  0.3998884583456587  1.0000
  Si  Si474     1.0  0.6711056189897645  0.011290595474554736  0.7158599262552298  1.0000
  O   O1187     1.0  0.3004643962335226  0.12483871949726555  0.8344526661272432  1.0000
  O   O1188     1.0  0.6106745685334075  0.06733474371371793  0.8216651267466719  1.0000
  Si  Si475     1.0  0.7729300183653368  0.9885975582128288  0.9519934983018837  1.0000
  O   O1189     1.0  0.7363278711389455  0.7560164200718013  0.5360281586404798  1.0000
  O   O1190     1.0  0.9485818226743827  0.46397503445922605  0.2888617671647318  1.0000
  Si  Si476     1.0  0.24000289430387367  0.9163219740788362  0.20815203874613097  1.0000
  O   O1191     1.0  0.09644763640806794  0.9946943731842195  0.661599853559589  1.0000
  O   O1192     1.0  0.23513449666318106  0.06451603362744641  0.6586866497707502  1.0000
  Si  Si477     1.0  0.6625394454418725  0.8050139365111924  0.34772719918199896  1.0000
  O   O1193     1.0  0.29340766838942006  0.304360525898419  0.6585316411274938  1.0000
  O   O1194     1.0  0.8376558313676689  0.12586099711106263  0.6680823437954654  1.0000
  Si  Si478     1.0  0.30592339263748836  0.019852796414747936  0.7390566148864002  1.0000
  O   O1195     1.0  0.09324661868954955  0.3960206573492508  0.9648291754485184  1.0000
  O   O1196     1.0  0.5840510314932728  0.8190303263885567  0.02701531652764172  1.0000
  Si  Si479     1.0  0.22079282099170774  0.3712173662739858  0.9362551324079654  1.0000
  O   O1197     1.0  0.12673834304656043  0.31903462833519897  0.30020851532933857  1.0000
  O   O1198     1.0  0.7460287047932316  0.725725796691087  0.1473096035520424  1.0000
  Si  Si480     1.0  0.09508754168058928  0.2867224114765792  0.4860682592854723  1.0000
  O   O1199     1.0  0.9634799664938402  0.7617027547195265  0.716555065207608  1.0000
  O   O1200     1.0  0.23442821385924392  0.25006205595313147  0.5888745353816802  1.0000
  Si  Si481     1.0  0.05327090112665954  0.22282977437758508  0.16319905057939613  1.0000
  O   O1201     1.0  0.46829007695707037  0.9593928141524944  0.5765707821975685  1.0000
  O   O1202     1.0  0.49861610294834796  0.8578733497757273  0.7797728758667489  1.0000
  Si  Si482     1.0  0.9494179181274566  0.2847230403673052  0.20621734755106558  1.0000
  O   O1203     1.0  0.7076504020600902  0.9559087752949638  0.6064293069991924  1.0000
  O   O1204     1.0  0.04679284807515134  0.844995954175867  0.5476652198408605  1.0000
  Si  Si483     1.0  0.9359116048379708  0.3178065615860433  0.5327469444510811  1.0000
  O   O1205     1.0  0.009715529827824036  0.0012398906000106098  0.6474303504846733  1.0000
  O   O1206     1.0  0.427156550501313  0.003187382988642822  0.4327962861117868  1.0000
  Si  Si484     1.0  0.6642560981956248  0.8086734723166062  0.041493280971114196  1.0000
  O   O1207     1.0  0.12451139881866426  0.5161987344897673  0.4877588650255118  1.0000
  O   O1208     1.0  0.49184647274198917  0.1932845002252801  0.8575267713846232  1.0000
  Si  Si485     1.0  0.9397399454015318  0.6156412668201308  0.7749532645374855  1.0000
  O   O1209     1.0  0.8158010251459329  0.7435708694194993  0.36280903184739216  1.0000
  O   O1210     1.0  0.3451199019923282  0.3351876635069921  0.34402699484572413  1.0000
  Si  Si486     1.0  0.15523301535344927  0.4316063337576536  0.4726463023023063  1.0000
  O   O1211     1.0  0.30043290942434114  0.8573647831233899  0.2482005430798899  1.0000
  O   O1212     1.0  0.8278088551252597  0.23060722347786675  0.683802709188974  1.0000
  Si  Si487     1.0  0.4578307073200178  0.9882284098091113  0.6174676411348219  1.0000
  O   O1213     1.0  0.3796235423707145  0.9056216803319509  0.26461176769691686  1.0000
  O   O1214     1.0  0.7235110080902373  0.5910962030297501  0.5289859805918411  1.0000
  Si  Si488     1.0  0.5493197831384062  0.14541596398195045  0.7229419589819447  1.0000
  O   O1215     1.0  0.49584492434724164  0.8020389141968755  0.5616029046615549  1.0000
  O   O1216     1.0  0.9792661816478468  0.5901963733362566  0.5949932235478859  1.0000
  Si  Si489     1.0  0.5190711730048037  0.04872148016940972  0.9170368215250801  1.0000
  O   O1217     1.0  0.4081215490178396  0.9743541733498088  0.36735582262427097  1.0000
  O   O1218     1.0  0.7886487687745684  0.775975304422365  0.4758391555597338  1.0000
  Si  Si490     1.0  0.9454032407066408  0.3856788323953294  0.9049358992771419  1.0000
  O   O1219     1.0  0.23572951813480922  0.5170956548449188  0.33047254559376904  1.0000
  O   O1220     1.0  0.9141956624900887  0.301224014661582  0.21694637911036607  1.0000
  Si  Si491     1.0  0.963446992790056  0.5548859454341675  0.195813613788308  1.0000
  O   O1221     1.0  0.048260574156500306  0.023126497158011624  0.2720690064282827  1.0000
  O   O1222     1.0  0.5735084007746996  0.7443231831812449  0.8672106917641929  1.0000
  Si  Si492     1.0  0.14261225255689808  0.026575512392766277  0.9644262481039507  1.0000
  O   O1223     1.0  0.2009921025163209  0.1983111758642122  0.06791123779130918  1.0000
  O   O1224     1.0  0.8294563381434205  0.6642601900154474  0.12849564483912387  1.0000
  Si  Si493     1.0  0.5144151886034032  0.9178285538380487  0.17635615262192264  1.0000
  O   O1225     1.0  0.5617036416348095  0.01764485709511089  0.5711755002710975  1.0000
  O   O1226     1.0  0.1805711864258072  0.7940927032039861  0.769186336416119  1.0000
  Si  Si494     1.0  0.033937574312279686  0.11635033908638195  0.9368554801420923  1.0000
  O   O1227     1.0  0.6714219934002492  0.640314326958089  0.694459957607899  1.0000
  O   O1228     1.0  0.928167697452157  0.456553672691929  0.004408541366929033  1.0000
  Si  Si495     1.0  0.4150620933133421  0.8575498430325635  0.9357072823764033  1.0000
  O   O1229     1.0  0.09205563300606098  0.2688331106541356  0.21442304862072195  1.0000
  O   O1230     1.0  0.3703136103702177  0.045337506025250454  0.41957282058346596  1.0000
  Si  Si496     1.0  0.3242922735167282  0.8224119168529486  0.8400109613265332  1.0000
  O   O1231     1.0  0.2723131480281639  0.15124925018063984  0.2274371600711551  1.0000
  O   O1232     1.0  0.9434144362261704  0.005930434114674881  0.7907119554984917  1.0000
  Si  Si497     1.0  0.12811630617151346  0.29062143694808285  0.6966881823904052  1.0000
  O   O1233     1.0  0.24271276856614846  0.03146375198833238  0.4673059912913217  1.0000
  O   O1234     1.0  0.11273558150326772  0.5148749422090458  0.6693855349245791  1.0000
  Si  Si498     1.0  0.4788363176820648  0.023026638430315202  0.5587248437777547  1.0000
  O   O1235     1.0  0.205876101563827  0.7354227570234975  0.7542313649947905  1.0000
  O   O1236     1.0  0.818652146027918  0.042242005819412294  0.3120635495396766  1.0000
  Si  Si499     1.0  0.877843662811371  0.8157750784879709  0.24394305344505174  1.0000
  O   O1237     1.0  0.1534413669569469  0.3314014536689521  0.11093936250526662  1.0000
  O   O1238     1.0  0.8885260790342088  0.653884750150549  0.6209871129338397  1.0000
  Si  Si500     1.0  0.9440629250068132  0.5793751460916411  0.9264786133689104  1.0000
  O   O1239     1.0  0.22076947235857688  0.5050252713903045  0.4704405614906578  1.0000
  O   O1240     1.0  0.061055758741262456  0.4657981400445143  0.7235916048043044  1.0000
  Si  Si501     1.0  0.42411681941236556  0.2659324702214014  0.31059292110843256  1.0000
  O   O1241     1.0  0.3262668723094128  0.8488447495891885  0.35257440135229445  1.0000
  O   O1242     1.0  0.8520576504724992  0.1736108660129819  0.5051101508128083  1.0000
  Si  Si502     1.0  0.9728026552881932  0.7705743841891824  0.5466328931838159  1.0000
  O   O1243     1.0  0.8423805174329481  0.754177996948988  0.8263087242015114  1.0000
  O   O1244     1.0  0.1712621277801927  0.967985129068638  0.8498622178676044  1.0000
  Si  Si503     1.0  0.45887836969475915  0.08342427990568702  0.3061245248729374  1.0000
  O   O1245     1.0  0.04407757083790671  0.13782317188099766  0.4135140033286279  1.0000
  O   O1246     1.0  0.6382694461080906  0.09194666798796547  0.6684139401350194  1.0000
  Si  Si504     1.0  0.24859099632346351  0.8687277158258675  0.12294992380838492  1.0000
  O   O1247     1.0  0.7401863779314322  0.9230407732104197  0.5221594002844709  1.0000
  O   O1248     1.0  0.27034255413603914  0.9621001062559303  0.4483052173879107  1.0000
  Si  Si505     1.0  0.30249109500777605  0.20846386009556264  0.8852834415578765  1.0000
  O   O1249     1.0  0.8634117095256216  0.3986537021328157  0.468160460372877  1.0000
  O   O1250     1.0  0.7624523020497262  0.168416701731595  0.5450241445346182  1.0000
  Si  Si506     1.0  0.6284421327273773  0.15610842114403684  0.6658007479675578  1.0000
  O   O1251     1.0  0.2760620471238219  0.10307341138396676  0.7774787512472898  1.0000
  O   O1252     1.0  0.12605810276326776  0.43181154204696  0.49456983767152707  1.0000
  Si  Si507     1.0  0.5062525450422027  0.046359399294578  0.39375112286874897  1.0000
  O   O1253     1.0  0.9722437906389131  0.05697149834084127  0.15603712053347318  1.0000
  O   O1254     1.0  0.012616302555785844  0.45922597279014404  0.3624922264012558  1.0000
  Si  Si508     1.0  0.7452671390391391  0.9734223388875534  0.3090241090219942  1.0000
  O   O1255     1.0  0.06254400981682474  0.4929323348071429  0.05179414360194939  1.0000
  O   O1256     1.0  0.12486539979798507  0.9016429633747933  0.44488521982956514  1.0000
  Si  Si509     1.0  0.050257631185594315  0.5636080928492992  0.9825088519360833  1.0000
  O   O1257     1.0  0.3112445620341995  0.8977707141036986  0.5899357997408268  1.0000
  O   O1258     1.0  0.7295980969914396  0.6973708293007589  0.23660420598216478  1.0000
  Si  Si510     1.0  0.2307105124265283  0.7887059081954352  0.07367119369282475  1.0000
  O   O1259     1.0  0.6446706337096503  0.8539512641709638  0.46459797361906124  1.0000
  O   O1260     1.0  0.9496618577889012  0.4142564140853094  0.31217543561580097  1.0000
  Si  Si511     1.0  0.4963418274039179  0.10026656902819729  0.24382284071351337  1.0000
  O   O1261     1.0  0.9561465014790996  0.5413371101543252  0.779902532429092  1.0000
  O   O1262     1.0  0.7605101516218888  0.08791792743474233  0.6494563860763392  1.0000
  Si  Si512     1.0  0.629357960414532  0.1472904313988805  0.39551572787345846  1.0000
  O   O1263     1.0  0.6593409829278923  0.9952857105689765  0.5570828007504307  1.0000
  O   O1264     1.0  0.14143800190730874  0.4126171456225029  0.21871107292057224  1.0000
  Si  Si513     1.0  0.2490108897078239  0.2188042055751036  0.7437672988622394  1.0000
  O   O1265     1.0  0.9581601075900641  0.6435034757370973  0.17333696345442218  1.0000
  O   O1266     1.0  0.8150590707768557  0.15696481685615088  0.8156451183099634  1.0000
  Si  Si514     1.0  0.9850844348846113  0.6458170142386199  0.20411793098458533  1.0000
  O   O1267     1.0  0.8804774543224619  0.0961276194436245  0.7325524994995426  1.0000
  O   O1268     1.0  0.6366478099819759  0.02599143855016724  0.4643225608942207  1.0000
  Si  Si515     1.0  0.44416620030328086  0.1654137812877395  0.013584782036756561  1.0000
  O   O1269     1.0  0.3005427181995409  0.31177195490773274  0.275101017225777  1.0000
  O   O1270     1.0  0.241391929705297  0.5274043941133549  0.5466500577083389  1.0000
  Si  Si516     1.0  0.578972782863676  0.9205034347623606  0.33915763702049645  1.0000
  O   O1271     1.0  0.8059609809836522  0.7018071214944465  0.953894289295172  1.0000
  O   O1272     1.0  0.06067787147401402  0.5151969061531088  0.7105566796468286  1.0000
  Si  Si517     1.0  0.5751612077852012  0.011941662002036063  0.845496872746328  1.0000
  O   O1273     1.0  0.13995729816832603  0.4878042949263189  0.8603884244099821  1.0000
  O   O1274     1.0  0.7991695591518527  0.2837350058655555  0.5240053558127598  1.0000
  Si  Si518     1.0  0.4470108252053852  0.8933614763826285  0.16860140127858547  1.0000
  O   O1275     1.0  0.09417286505561982  0.9318227977400261  0.9145042781734894  1.0000
  O   O1276     1.0  0.10177070088836292  0.5351259035757474  0.0771705900353998  1.0000
  Si  Si519     1.0  0.3854561910201018  0.1881248142498354  0.2923464668934821  1.0000
  O   O1277     1.0  0.34788466652575795  0.9752105962877731  0.4725379164833707  1.0000
  O   O1278     1.0  0.2774140887918528  0.7899692465935831  0.5523764082633202  1.0000
  Si  Si520     1.0  0.1998208042989763  0.10036927085955279  0.9586471188708604  1.0000
  O   O1279     1.0  0.668263641098393  0.7246470517615355  0.10020412066264764  1.0000
  O   O1280     1.0  0.06625247868993514  0.587609335941242  0.7780709669827337  1.0000
  Si  Si521     1.0  0.8092348429221096  0.6672313732702705  0.07800524108193711  1.0000
  O   O1281     1.0  0.06801800480154385  0.6982393551541897  0.84251416253382  1.0000
  O   O1282     1.0  0.7948677442675313  0.7952775184984907  0.5946319645142794  1.0000
  Si  Si522     1.0  0.7088050780909492  0.1064697569274252  0.9934244382359291  1.0000
  O   O1283     1.0  0.9801854107869747  0.5687198937407901  0.1603781499434085  1.0000
  O   O1284     1.0  0.6972877356163356  0.7608828267985649  0.6108427764231414  1.0000
  Si  Si523     1.0  0.07887278385952659  0.4691535947950428  0.8907968177712665  1.0000
  O   O1285     1.0  0.1588284551808493  0.08930720465444339  0.6928730431161916  1.0000
  O   O1286     1.0  0.7965497782467647  0.28464619334563696  0.7350759719962049  1.0000
  Si  Si524     1.0  0.8404632151685214  0.4444565047720934  0.7161312880024442  1.0000
  O   O1287     1.0  0.3155352363997764  0.8650688126705385  0.1439282887785194  1.0000
  O   O1288     1.0  0.042972223355052325  0.3361383370655959  0.5552324805826547  1.0000
  Si  Si525     1.0  0.46032130833204526  0.17998735977803812  0.4085159861422906  1.0000
  O   O1289     1.0  0.06456500036387751  0.0971349171383871  0.5988220381452531  1.0000
  O   O1290     1.0  0.3990154025264407  0.9676507367219279  0.1479771817413572  1.0000
  Si  Si526     1.0  0.21748256086690257  0.8803807040193813  0.8281210185725446  1.0000
  O   O1291     1.0  0.11183703980268253  0.28038384878019984  0.13395229867627076  1.0000
  O   O1292     1.0  0.1604645441460036  0.15298973544629113  0.5127687690118601  1.0000
  Si  Si527     1.0  0.5034971291999155  0.03629369437009811  0.09199058323292919  1.0000
  O   O1293     1.0  0.7779296265065718  0.8571100333974041  0.6175979625634866  1.0000
  O   O1294     1.0  0.7156608999986485  0.6862501189863558  0.142437257279355  1.0000
  Si  Si528     1.0  0.7316550934674125  0.8443275393024001  0.1644830320887129  1.0000
  O   O1295     1.0  0.1442269515409217  0.7233191729114256  0.37407857772466374  1.0000
  O   O1296     1.0  0.06457883497018517  0.8500050802650095  0.25774042466535074  1.0000
  Si  Si529     1.0  0.7977497227639218  0.8722474612950115  0.8238467480112107  1.0000
  O   O1297     1.0  0.687732367316419  0.9334780624860499  0.3622803948216953  1.0000
  O   O1298     1.0  0.020146505502386093  0.992973767133036  0.4432365484109588  1.0000
  Si  Si530     1.0  0.15156520608454813  0.08299950794882385  0.29284365374103394  1.0000
  O   O1299     1.0  0.9336114011951951  0.6603605539428098  0.651102156059812  1.0000
  O   O1300     1.0  0.12135293790430646  0.48571321204583  0.7645682401470527  1.0000
  Si  Si531     1.0  0.9185857364159954  0.7128401948777975  0.6087730275595564  1.0000
  O   O1301     1.0  0.21176020159815223  0.46022911284816864  0.6209082206215212  1.0000
  O   O1302     1.0  0.02011706713862234  0.9299617292908005  0.13817848344474457  1.0000
  Si  Si532     1.0  0.1786069142327572  0.8296132740408336  0.010196579188453793  1.0000
  O   O1303     1.0  0.4848171097632133  0.003990930848074131  0.5072617992446654  1.0000
  O   O1304     1.0  0.5758172306852555  0.06748764133234418  0.7400991062228404  1.0000
  Si  Si533     1.0  0.5258486920118981  0.1709934600736555  0.8763624023281427  1.0000
  O   O1305     1.0  0.6547479095411712  0.9737840596270444  0.8935751057119977  1.0000
  O   O1306     1.0  0.2563818932259621  0.14722868247504745  0.6191836439826188  1.0000
  Si  Si534     1.0  0.395411236529634  0.08709142380477997  0.13436529289809113  1.0000
  O   O1307     1.0  0.4125805786533342  0.05813074737432321  0.4096331325529672  1.0000
  O   O1308     1.0  0.572622378320177  0.8628284547267628  0.4132043472302797  1.0000
  Si  Si535     1.0  0.41618575957123405  0.854864631817762  0.17023871608900332  1.0000
  O   O1309     1.0  0.20781808701373528  0.1585223716773343  0.9023321681932964  1.0000
  O   O1310     1.0  0.9250646342700635  0.4602822747671065  0.5997521879506429  1.0000
  Si  Si536     1.0  0.6998020995402504  0.03968830309518022  0.8331910736880299  1.0000
  O   O1311     1.0  0.9102410525639386  0.7349666121888426  0.26133474682090563  1.0000
  O   O1312     1.0  0.12394182730734876  0.9422840344169446  0.37618234612980367  1.0000
  Si  Si537     1.0  0.10292529607129133  0.6994200616599735  0.07986408586621788  1.0000
  O   O1313     1.0  0.8239648292626012  0.9456452115714269  0.6257831227357116  1.0000
  O   O1314     1.0  0.6846161549369949  0.7693205346566715  0.843521373459726  1.0000
  Si  Si538     1.0  0.39513035054903567  0.17955363113502718  0.1013955131629232  1.0000
  O   O1315     1.0  0.8488042785633139  0.9253745041525828  0.9164850295196058  1.0000
  O   O1316     1.0  0.8611643320346836  0.012251201194276343  0.8689691114080212  1.0000
  Si  Si539     1.0  0.899866694116499  0.683117093554276  0.30848943335478674  1.0000
  O   O1317     1.0  0.6944148819776507  0.14719873656711885  0.8556345708910141  1.0000
  O   O1318     1.0  0.8312119627647585  0.7230402985417538  0.46456367224162703  1.0000
  Si  Si540     1.0  0.8684906236830633  0.26056614800680866  0.23493664567742803  1.0000
  O   O1319     1.0  0.17347861765615283  0.613595203956459  0.8277326102945328  1.0000
  O   O1320     1.0  0.12183463825480288  0.07443837380875676  0.5122425859428769  1.0000
  Si  Si541     1.0  0.9845672190256068  0.3069971857807405  0.6950473316328382  1.0000
  O   O1321     1.0  0.979450731129874  0.7228426748609806  0.6201818263467177  1.0000
  O   O1322     1.0  0.298241765114173  0.866242009954999  0.527419465107241  1.0000
  Si  Si542     1.0  0.35750953857095413  0.8802667465662204  0.8113451717975052  1.0000
  O   O1323     1.0  0.9726677501144956  0.7234154537879991  0.9443745803364154  1.0000
  O   O1324     1.0  0.20276613404125035  0.9443915059911644  0.5592364052934  1.0000
  Si  Si543     1.0  0.7696675821013848  0.7471346350796949  0.6854496482517521  1.0000
  O   O1325     1.0  0.7516886836438188  0.12616084863854546  0.8999565179083898  1.0000
  O   O1326     1.0  0.24434889988863415  0.4166920354857631  0.35614674468400714  1.0000
  Si  Si544     1.0  0.03300494136413862  0.7831632281239597  0.7298827572440831  1.0000
  O   O1327     1.0  0.7673984601584531  0.9128915293320312  0.6092112689493976  1.0000
  O   O1328     1.0  0.09915306394894519  0.9271131488604408  0.1831377417573943  1.0000
  Si  Si545     1.0  0.42041625197482085  0.9135324692201621  0.9008941160097922  1.0000
  O   O1329     1.0  0.8322927423910197  0.6068365338935245  0.6664069578103882  1.0000
  O   O1330     1.0  0.20159596287138712  0.07489240859097748  0.41562058922666195  1.0000
  Si  Si546     1.0  0.014988085004645069  0.8451058296974624  0.6793578881027271  1.0000
  O   O1331     1.0  0.36895563098583606  0.12384724868238671  0.13860363093218933  1.0000
  O   O1332     1.0  0.4778532560701583  0.9274712257822814  0.8403124093318431  1.0000
  Si  Si547     1.0  0.8231434620984328  0.7533329791538702  0.49970830317202347  1.0000
  O   O1333     1.0  0.9886319788601375  0.8655435254611092  0.719964712026203  1.0000
  O   O1334     1.0  0.07032995081934729  0.9608170927025194  0.4915178824050022  1.0000
  Si  Si548     1.0  0.6103122549833668  0.7977971377010727  0.06841206370302907  1.0000
  O   O1335     1.0  0.1435869356870178  0.8518418687267569  0.020756067122568885  1.0000
  O   O1336     1.0  0.16714256576711248  0.7187195237939625  0.08812839088558526  1.0000
  Si  Si549     1.0  0.09788897063166206  0.6933096440191464  0.9595997652566556  1.0000
  O   O1337     1.0  0.9681257618515867  0.5107904771504352  0.030587164710988376  1.0000
  O   O1338     1.0  0.08602780633557601  0.08574852412584802  0.43208025624479496  1.0000
  Si  Si550     1.0  0.6380019061682856  0.8274580902243566  0.45223227121218573  1.0000
  O   O1339     1.0  0.235867816499628  0.2419267921969043  0.8771187225644196  1.0000
  O   O1340     1.0  0.8748125322544037  0.827298870712909  0.628288550471146  1.0000
  Si  Si551     1.0  0.33829819024157187  0.05116821026109776  0.3941345512482565  1.0000
  O   O1341     1.0  0.32194259535263553  0.10973368085988329  0.2769158444137301  1.0000
  O   O1342     1.0  0.769545315250695  0.6566667912411029  0.17664273777399622  1.0000
  Si  Si552     1.0  0.9014899633586158  0.23425531823559545  0.6825591950831125  1.0000
  O   O1343     1.0  0.9239157518652984  0.24736570843079314  0.6774198437777178  1.0000
  O   O1344     1.0  0.4524749617616795  0.23810068125744704  0.026329032614136157  1.0000
  Si  Si553     1.0  0.9562791619303807  0.9836898293805882  0.8408647224758711  1.0000
  O   O1345     1.0  0.20419505258609486  0.22414936644150177  0.5076173598463103  1.0000
  O   O1346     1.0  0.5667639425071758  0.04264091170583549  0.33907069724384103  1.0000
  Si  Si554     1.0  0.24640825649988057  0.25506591513673027  0.9245580929371068  1.0000
  O   O1347     1.0  0.9478707411535883  0.7635935192458804  0.022958514244293234  1.0000
  O   O1348     1.0  0.5699073114061587  0.7724870529822601  0.1738316326311065  1.0000
  Si  Si555     1.0  0.8606907504913769  0.3225363601381078  0.4538975223785041  1.0000
  O   O1349     1.0  0.28276434007984824  0.982511437845559  0.13683696344456478  1.0000
  O   O1350     1.0  0.9217434001920402  0.12968307584601496  0.9798641922527758  1.0000
  Si  Si556     1.0  0.9928674484595839  0.16659482675436169  0.6296314572829186  1.0000
  O   O1351     1.0  0.23409749961408838  0.3893806800545718  0.9044029233623726  1.0000
  O   O1352     1.0  0.6439112081037354  0.12421576885129568  0.44515592224144807  1.0000
  Si  Si557     1.0  0.5425989648782147  0.09276513186482563  0.7538625645834204  1.0000
  O   O1353     1.0  0.299835685435928  0.23692323066399007  0.8474214095098922  1.0000
  O   O1354     1.0  0.6654851849301356  0.7431464817794592  0.44160240597250694  1.0000
  Si  Si558     1.0  0.46760137449556455  0.8420488911979239  0.9956700810632917  1.0000
  O   O1355     1.0  0.8430209136721414  0.396946837721477  0.37570434328703567  1.0000
  O   O1356     1.0  0.19520135699096355  0.8706255669533344  0.8039780223933654  1.0000
  Si  Si559     1.0  0.12589680572805861  0.4834713430094428  0.7041533174555554  1.0000
  O   O1357     1.0  0.5987874564751152  0.9603675836564923  0.6420330604605997  1.0000
  O   O1358     1.0  0.18196466850472343  0.5186157185988892  0.6226879397891781  1.0000
  Si  Si560     1.0  0.6138416774766119  0.8042886002831681  0.5358193067285408  1.0000
  O   O1359     1.0  0.21543892144669954  0.4598928498576379  0.17835401830862563  1.0000
  O   O1360     1.0  0.1990288185170862  0.6126717610076948  0.4333542765187512  1.0000
  Si  Si561     1.0  0.6760660618530675  0.049832129957562046  0.5502767303346046  1.0000
  O   O1361     1.0  0.8542348894100672  0.33619715045939425  0.22125696879132728  1.0000
  O   O1362     1.0  0.7567294689410926  0.8539989034301378  0.16076350524066485  1.0000
  Si  Si562     1.0  0.1618979620107982  0.16096359218597978  0.13028664569323148  1.0000
  O   O1363     1.0  0.24305767773448483  0.7788698296929247  0.6178913900005144  1.0000
  O   O1364     1.0  0.1575205382931079  0.3142312846722122  0.21683328604331736  1.0000
  Si  Si563     1.0  0.7774429520998919  0.9652053186906299  0.06369920176232506  1.0000
  O   O1365     1.0  0.027102720497218617  0.3700222384675758  0.2205030096620082  1.0000
  O   O1366     1.0  0.39122327532732837  0.8828343156370605  0.5697496745312443  1.0000
  Si  Si564     1.0  0.8287327269963438  0.7042495530978433  0.5731340564116075  1.0000
  O   O1367     1.0  0.5261519357570354  0.0985549229250373  0.6079077434200932  1.0000
  O   O1368     1.0  0.3057923347030737  0.896004552903891  0.04804643700830828  1.0000
  Si  Si565     1.0  0.6867008516701855  0.6407963667911986  0.9527366523815031  1.0000
  O   O1369     1.0  0.502894584751342  0.8039767004820103  0.7580374693864403  1.0000
  O   O1370     1.0  0.017704087799844788  0.4633729183943899  0.0708118679256891  1.0000
  Si  Si566     1.0  0.3692250549696421  0.9659027569481753  0.15851651246332601  1.0000
  O   O1371     1.0  0.8229271254089839  0.049377153681885104  0.644648138139252  1.0000
  O   O1372     1.0  0.29634643373531355  0.022890393807373403  0.48322604869758473  1.0000
  Si  Si567     1.0  0.1583608979378898  0.9877764615219827  0.32990175871430744  1.0000
  O   O1373     1.0  0.807593807415839  0.9191451764422665  0.872128294417672  1.0000
  O   O1374     1.0  0.9275455827119138  0.7712683050007323  0.8005360695674241  1.0000
  Si  Si568     1.0  0.9247838964398459  0.7552178468805244  0.27465135064319224  1.0000
  O   O1375     1.0  0.9627721142518983  0.28353976878264897  0.5331925882199906  1.0000
  O   O1376     1.0  0.7775213749139601  0.7158168080183838  0.7167485962339303  1.0000
  Si  Si569     1.0  0.8579719488353099  0.6630366923329186  0.15546468748509967  1.0000
  O   O1377     1.0  0.13077159428952712  0.8222997484763602  0.9519831222368559  1.0000
  O   O1378     1.0  0.2653844902669088  0.28174600282443807  0.20842715986376525  1.0000
  Si  Si570     1.0  0.5695403835142971  0.944766386367402  0.4530705429816668  1.0000
  O   O1379     1.0  0.16530765103564318  0.7731797261016136  0.901521031611521  1.0000
  O   O1380     1.0  0.793821526034441  0.2813733313101895  0.6336049729030436  1.0000
  Si  Si571     1.0  0.46918739434783874  0.8581315921915581  0.4871942891505801  1.0000
  O   O1381     1.0  0.17008719273080025  0.6651451830040621  0.485329360841279  1.0000
  O   O1382     1.0  0.7028441176032325  0.07992495111393591  0.9674351899114103  1.0000
  Si  Si572     1.0  0.931410708098469  0.7653580460635802  0.7392179434096362  1.0000
  O   O1383     1.0  0.9971933635626435  0.186424378610249  0.8467991622744347  1.0000
  O   O1384     1.0  0.7791138992504182  0.6065104805826177  0.24080370600550194  1.0000
  Si  Si573     1.0  0.9991451822371885  0.8833524720109465  0.359240803240306  1.0000
  O   O1385     1.0  0.19698166578048315  0.03842736100230971  0.8826528924132785  1.0000
  O   O1386     1.0  0.7685975369098889  0.89448251354911  0.11157615385153388  1.0000
  Si  Si574     1.0  0.21484656746837982  0.7758117934919565  0.6267524740211301  1.0000
  O   O1387     1.0  0.20568076878121339  0.9363160865079617  0.6670120926868065  1.0000
  O   O1388     1.0  0.35883842108729413  0.8492712377770869  0.5578619256240258  1.0000
  Si  Si575     1.0  0.13361517598459507  0.5085603213744385  0.09537078555002791  1.0000
  O   O1389     1.0  0.6020368301029428  0.1504491637939839  0.6427129603674621  1.0000
  O   O1390     1.0  0.17372501556939687  0.2810677863831478  0.4884957843297732  1.0000
  Si  Si576     1.0  0.1695004643390917  0.9753092811622383  0.050197376968568894  1.0000
  O   O1391     1.0  0.20432444412409265  0.5685429354894216  0.2754142006046292  1.0000
  O   O1392     1.0  0.03840771559084592  0.22214811333792242  0.016545399247244685  1.0000
  Si  Si577     1.0  0.8463800733022041  0.530919482539853  0.004613387892737441  1.0000
  O   O1393     1.0  0.8538191258531905  0.7495974351356631  0.25307871842293017  1.0000
  O   O1394     1.0  0.1295930632456187  0.5999040224671248  0.36831230952350075  1.0000
  Si  Si578     1.0  0.20481284138033476  0.7339890935109653  0.16715384688518956  1.0000
  O   O1395     1.0  0.9825645719966669  0.026395000823924524  0.9278747517817202  1.0000
  O   O1396     1.0  0.7023143465612788  0.5803455367984275  0.7204988024155021  1.0000
  Si  Si579     1.0  0.7004360486885268  0.6122022231574749  0.48428057366100513  1.0000
  O   O1397     1.0  0.15851092627380417  0.5936501727519657  0.20884138392689539  1.0000
  O   O1398     1.0  0.6830814233541096  0.9227891355462674  0.18052462721466814  1.0000
  Si  Si580     1.0  0.5755510270199851  0.77068267739253  0.5277978751909534  1.0000
  O   O1399     1.0  0.22121138329175422  0.2997916481723013  0.3395754256739806  1.0000
  O   O1400     1.0  0.6167660523717339  0.7189378984263208  0.795774051499912  1.0000
  Si  Si581     1.0  0.31821713929675377  0.9843271858375859  0.33448947751086594  1.0000
  O   O1401     1.0  0.8600767073738357  0.0019005238335570369  0.5854180307313583  1.0000
  O   O1402     1.0  0.9762943290151271  0.5606472598331009  0.05780931104753355  1.0000
  Si  Si582     1.0  0.23399344586488638  0.22422469335272402  0.6266770512564993  1.0000
  O   O1403     1.0  0.05051288584886511  0.2875641786073795  0.6510294829693583  1.0000
  O   O1404     1.0  0.14577429263421002  0.9039035181709961  0.7516340064463702  1.0000
  Si  Si583     1.0  0.6505739119635888  0.6957426874290723  0.3588283897061486  1.0000
  O   O1405     1.0  0.2920053016394514  0.05455040620626119  0.1511633804025622  1.0000
  O   O1406     1.0  0.19833088093697596  0.9069391570273072  0.868889915414938  1.0000
  Si  Si584     1.0  0.7896278005217678  0.8800314902535714  0.6256847422249081  1.0000
  O   O1407     1.0  0.3297038254203701  0.811853343898605  0.1847538838732279  1.0000
  O   O1408     1.0  0.3736071411430123  0.16470215657277393  0.7336473534163399  1.0000
  Si  Si585     1.0  0.5905252716788568  0.806404198970266  0.2903319238928859  1.0000
  O   O1409     1.0  0.2126106956670428  0.644483652568512  0.8662762633433805  1.0000
  O   O1410     1.0  0.2747758556360171  0.40202953728701485  0.7284310200041909  1.0000
  Si  Si586     1.0  0.25278909914563263  0.9104681325230678  0.7908363494553915  1.0000
  O   O1411     1.0  0.34717976954718316  0.29295507794343284  0.9514516723836268  1.0000
  O   O1412     1.0  0.44911013566059393  0.18225908411086178  0.18284031541280335  1.0000
  Si  Si587     1.0  0.9678047668370181  0.7939936914483234  0.4360346738351563  1.0000
  O   O1413     1.0  0.04453037508052919  0.9070177159422677  0.6629471875174822  1.0000
  O   O1414     1.0  0.9554842139950038  0.3757817553402715  0.523247952521722  1.0000
  Si  Si588     1.0  0.8615998193072316  0.6918646060108459  0.47384903715961707  1.0000
  O   O1415     1.0  0.9201334870536443  0.6479478559253826  0.801316488776128  1.0000
  O   O1416     1.0  0.9355511156382702  0.543361746150485  0.6386855337494416  1.0000
  Si  Si589     1.0  0.8852135986509044  0.38403781843337553  0.141007876250024  1.0000
  O   O1417     1.0  0.5166082409800526  0.06653817935634956  0.9703197099589611  1.0000
  O   O1418     1.0  0.02175354591450723  0.7814311991180134  0.9688314539212309  1.0000
  Si  Si590     1.0  0.028417178358914746  0.15408947882689808  0.838146373406862  1.0000
  O   O1419     1.0  0.9937738968224775  0.16839715903636485  0.06006933882071657  1.0000
  O   O1420     1.0  0.7994271147432046  0.7066342091988079  0.8544061171314098  1.0000
  Si  Si591     1.0  0.3834743762476852  0.9201619435776657  0.806911644187938  1.0000
  O   O1421     1.0  0.11286238904900284  0.19307337454934104  0.6869463923453651  1.0000
  O   O1422     1.0  0.21014510827295824  0.002292714898962141  0.8016208845101774  1.0000
  Si  Si592     1.0  0.6946450837809616  0.6398519861941024  0.8410401938560694  1.0000
  O   O1423     1.0  0.6907503550098001  0.6235772836766941  0.7893068451714232  1.0000
  O   O1424     1.0  0.5738620153754612  0.9195562972131696  0.4969410833093046  1.0000
  Si  Si593     1.0  0.7730146062912924  0.22402114851048863  0.7041150084846027  1.0000
  O   O1425     1.0  0.7289438422202907  0.578158607965512  0.6294310277384532  1.0000
  O   O1426     1.0  0.7351929530004889  0.7304451126709779  0.9653311480530733  1.0000
  Si  Si594     1.0  0.7881542957596857  0.10478606941139575  0.9008470957324121  1.0000
  O   O1427     1.0  0.3218124703388961  0.14130497208530382  0.9428405990416664  1.0000
  O   O1428     1.0  0.8968186422631971  0.8492872543920421  0.45076610354644764  1.0000
  Si  Si595     1.0  0.8110181111997126  0.46901004470364777  0.2831395431043774  1.0000
  O   O1429     1.0  0.8155354035175371  0.15106490179840662  0.49695407247544554  1.0000
  O   O1430     1.0  0.7050440059624833  0.6128012641134134  0.9936789021953577  1.0000
  Si  Si596     1.0  0.1845034907515651  0.4891954511445499  0.5952803230911354  1.0000
  O   O1431     1.0  0.7159535237197767  0.9958953869293151  0.3429469089066414  1.0000
  O   O1432     1.0  0.4055850741788176  0.8384141763748004  0.366344082273206  1.0000
  Si  Si597     1.0  0.8150178697966205  0.4460799936195008  0.08097977175538021  1.0000
  O   O1433     1.0  0.9711010015942858  0.9329851229996803  0.17501540392424922  1.0000
  O   O1434     1.0  0.020423067223639787  0.8971504496131522  0.5127048713892975  1.0000
  Si  Si598     1.0  0.48090386177312516  0.8382058837866031  0.7758622795297225  1.0000
  O   O1435     1.0  0.12685285447389924  0.989109601931436  0.33354195346760135  1.0000
  O   O1436     1.0  0.8043856434366926  0.0219036377516694  0.8460526514683997  1.0000
  Si  Si599     1.0  0.08473681575933875  0.1615845990822603  0.537337791876267  1.0000
  O   O1437     1.0  0.3195493388139722  0.18256976998659147  0.6926887360543782  1.0000
  O   O1438     1.0  0.4407407748103841  0.9193039755085283  0.38855535224586907  1.0000
  Si  Si600     1.0  0.7722583854080683  0.943880232014295  0.8749772631853928  1.0000
  O   O1439     1.0  0.3274119705347424  0.8584995042233485  0.7024336063559836  1.0000
  O   O1440     1.0  0.7643120362664036  0.646963607605835  0.5624656643612533  1.0000
  Si  Si601     1.0  0.8826543896203278  0.30825010827266724  0.19466747224226488  1.0000
  O   O1441     1.0  0.9579870930429557  0.5320464325291168  0.1629361610598512  1.0000
  O   O1442     1.0  0.0958237822212554  0.07041979815628334  0.7678420495137651  1.0000
  Si  Si602     1.0  0.905426764462765  0.18465006191212044  0.7407110419776494  1.0000
  O   O1443     1.0  0.11464593187325586  0.031477031840757265  0.6031689106989951  1.0000
  O   O1444     1.0  0.28632730727358924  0.27181559939572913  0.7637579351237561  1.0000
  Si  Si603     1.0  0.09805452843487594  0.9239534834112832  0.12107703512881667  1.0000
  O   O1445     1.0  0.1771725835095142  0.05955463280737893  0.2568338467886883  1.0000
  O   O1446     1.0  0.8496365862096884  0.15551534059473143  0.7374130078313057  1.0000
  Si  Si604     1.0  0.8057292631350426  0.7223348253199786  0.9053305401803153  1.0000
  O   O1447     1.0  0.23468300363695146  0.34002047935352414  0.6707548604034608  1.0000
  O   O1448     1.0  0.1069537481943951  0.7646768459972776  0.14673790883315865  1.0000
  Si  Si605     1.0  0.8076570009148212  0.12985756674159277  0.8056820866050457  1.0000
  O   O1449     1.0  0.11142783543651355  0.513441316152509  0.3900112508013256  1.0000
  O   O1450     1.0  0.10314569635011771  0.14270448917364065  0.08403151096042885  1.0000
  Si  Si606     1.0  0.6075106882204484  0.9740393860749891  0.44737250468411144  1.0000
  O   O1451     1.0  0.37097511343638373  0.08892377029455549  0.9588057710537927  1.0000
  O   O1452     1.0  0.3097570536269069  0.7848805617397989  0.4503393981053842  1.0000
  Si  Si607     1.0  0.9830689428825318  0.8104723463974486  0.26099638826263893  1.0000
  O   O1453     1.0  0.15030407926599387  0.49425384793947136  0.5836836346208536  1.0000
  O   O1454     1.0  0.5028126910146967  0.7735217700058462  0.4659825937665655  1.0000
  Si  Si608     1.0  0.882297936170295  0.31035393452054266  0.9154267074117554  1.0000
  O   O1455     1.0  0.23999673011078917  0.9001429301852162  0.15409524371473293  1.0000
  O   O1456     1.0  0.03693827864404185  0.27339038216754247  0.025562870469514495  1.0000
  Si  Si609     1.0  0.11289216576613137  0.6288998832538037  0.9138814726516542  1.0000
  O   O1457     1.0  0.9936654191021664  0.18153528204073047  0.44764707108399554  1.0000
  O   O1458     1.0  0.21594626053011834  0.8924610195618697  0.6082067646965379  1.0000
  Si  Si610     1.0  0.16328652157452817  0.03713929726316715  0.37600156885926983  1.0000
  O   O1459     1.0  0.22913609086896145  0.7616694140713547  0.04695427727155481  1.0000
  O   O1460     1.0  0.08878907923142511  0.4249682796526192  0.05622513826185655  1.0000
  Si  Si611     1.0  0.7195685126990453  0.15436182319799302  0.8768534637651245  1.0000
  O   O1461     1.0  0.14380779955740045  0.8506679418186177  0.326745596714048  1.0000
  O   O1462     1.0  0.22739462930149576  0.15736134123425502  0.7166121285811676  1.0000
  Si  Si612     1.0  0.9591798637664574  0.45747682546870144  0.6053937580559026  1.0000
  O   O1463     1.0  0.9902148110660616  0.9022371908309337  0.01108014641163352  1.0000
  O   O1464     1.0  0.7263045403079053  0.1979322745574112  0.6289990121378609  1.0000
  Si  Si613     1.0  0.28277207643741736  0.15573168498910642  0.6070644492060511  1.0000
  O   O1465     1.0  0.2388836243102306  0.8007137425943159  0.9286106839108459  1.0000
  O   O1466     1.0  0.7408368008399185  0.7552103835023087  0.05203317096311659  1.0000
  Si  Si614     1.0  0.8670476030329296  0.5135623490924879  0.8070938276990264  1.0000
  O   O1467     1.0  0.48866100494689174  0.8142908221268381  0.03484587317309589  1.0000
  O   O1468     1.0  0.8516665578770751  0.9656316385361567  0.8574932744644563  1.0000
  Si  Si615     1.0  0.017469455469343947  0.8409964141977212  0.5612061677025891  1.0000
  O   O1469     1.0  0.8806469793099625  0.4777810054986466  0.8128323199186563  1.0000
  O   O1470     1.0  0.7354872516992521  0.6012703354063581  0.7143632346385261  1.0000
  Si  Si616     1.0  0.6569731862625695  0.04504055973848319  0.10298005512472963  1.0000
  O   O1471     1.0  0.4449997329306647  0.9277026842019241  0.7532235483851654  1.0000
  O   O1472     1.0  0.7779532205134964  0.7091896697591588  0.45530999636138125  1.0000
  Si  Si617     1.0  0.6236163724973437  0.868638766126984  0.719822712988703  1.0000
  O   O1473     1.0  0.046845566540748056  0.2488459976858467  0.597537353484271  1.0000
  O   O1474     1.0  0.397363257239908  0.8088980439980356  0.9349909273654405  1.0000
  Si  Si618     1.0  0.06661151104163175  0.2931004290075892  0.6963449305104724  1.0000
  O   O1475     1.0  0.2571624086640245  0.7952516027191036  0.3128888564700198  1.0000
  O   O1476     1.0  0.8690799238121175  0.6000719863933284  0.7362243187256027  1.0000
  Si  Si619     1.0  0.999989889873335  0.0635071176721437  0.16879642939086015  1.0000
  O   O1477     1.0  0.30624388048463064  0.05081211794831818  0.74453421152906  1.0000
  O   O1478     1.0  0.8802327559803448  0.03254940523695907  0.6307712694145249  1.0000
  Si  Si620     1.0  0.8607264067903199  0.6100573423080025  0.6767996952399778  1.0000
  O   O1479     1.0  0.865111277140705  0.8165209641245651  0.1855204205985228  1.0000
  O   O1480     1.0  0.5933278831908134  0.7430991821020765  0.49144191058803205  1.0000
  Si  Si621     1.0  0.1098267460649377  0.4984128084162568  0.8228641832384074  1.0000
  O   O1481     1.0  0.8679634089514517  0.4540702763273456  0.18611310446880494  1.0000
  O   O1482     1.0  0.9866295981181228  0.8737111140066047  0.1337217485074114  1.0000
  Si  Si622     1.0  0.4917308234324806  0.008839595949472938  0.19031085825597452  1.0000
  O   O1483     1.0  0.7387789667705614  0.972278031378443  0.45303396909252586  1.0000
  O   O1484     1.0  0.9326308784515455  0.987509773789805  0.8848277211307739  1.0000
  Si  Si623     1.0  0.19841725502701726  0.5251761650198374  0.6708681580214051  1.0000
  O   O1485     1.0  0.5361397098024657  0.7619163380521056  0.015283587052157765  1.0000
  O   O1486     1.0  0.39308888040690426  0.22254179170930927  0.21467155442761338  1.0000
  Si  Si624     1.0  0.015369648142059857  0.3609456894815649  0.03596916500390517  1.0000
  O   O1487     1.0  0.0873232317974576  0.6054957150865028  0.44319923494668023  1.0000
  O   O1488     1.0  0.9572621429938355  0.20661069198814178  0.9247802747575905  1.0000
  Si  Si625     1.0  0.9331106523363641  0.7706863227611962  0.07883966981796633  1.0000
  O   O1489     1.0  0.1590823432267804  0.26102275206965386  0.7087868222513648  1.0000
  O   O1490     1.0  0.8511690732651024  0.8442379023812353  0.7219539349782258  1.0000
  Si  Si626     1.0  0.5974506385235314  0.8030799474795137  0.8081501638195282  1.0000
  O   O1491     1.0  0.7539108753007905  0.13463281500811905  0.12126263956240638  1.0000
  O   O1492     1.0  0.6544349476903923  0.7191760291664957  0.3261468311802253  1.0000
  Si  Si627     1.0  0.7716071307836105  0.06491000499671992  0.4192187840772023  1.0000
  O   O1493     1.0  0.9323946095331227  0.5855704850087888  0.5758985842914399  1.0000
  O   O1494     1.0  0.9236281417947518  0.33637078524970304  0.2789788699002588  1.0000
  Si  Si628     1.0  0.16487549600659163  0.46400804025090964  0.9000097810480329  1.0000
  O   O1495     1.0  0.7327504057187635  0.7931894123524535  0.43647739229997756  1.0000
  O   O1496     1.0  0.9078037785895496  0.5532198101907588  0.5522799691360658  1.0000
  Si  Si629     1.0  0.7961749432397673  0.26383910509595565  0.6893217003555802  1.0000
  O   O1497     1.0  0.26468169820646287  0.008951114604368628  0.04355813420385457  1.0000
  O   O1498     1.0  0.09266924296469617  0.5442513613295963  0.3031648392828108  1.0000
  Si  Si630     1.0  0.8636756307557122  0.6340092451134057  0.42756963143698606  1.0000
  O   O1499     1.0  0.5300091551355247  0.09369375492791397  0.8163961408689581  1.0000
  O   O1500     1.0  0.0019650038433271007  0.4586586143751789  0.8626760143051548  1.0000
  Si  Si631     1.0  0.589160163584483  0.7148972161684963  0.3555912991292522  1.0000
  O   O1501     1.0  0.04404082546875017  0.08119236942378752  0.9442396596890966  1.0000
  O   O1502     1.0  0.3257009887364045  0.21333610952474483  0.7657459603815001  1.0000
  Si  Si632     1.0  0.05257356077663988  0.378869447774548  0.4436805230414611  1.0000
  O   O1503     1.0  0.21745517289739036  0.839308410723636  0.6191991185692163  1.0000
  O   O1504     1.0  0.6061282811378268  0.9278987085920509  0.3296467982617408  1.0000
  Si  Si633     1.0  0.8960547498845487  0.6024364726859607  0.21455471551867955  1.0000
  O   O1505     1.0  0.5209099227740108  0.9169801085024659  0.41921792980483796  1.0000
  O   O1506     1.0  0.14247093930878652  0.5115235508809872  0.15544007059590598  1.0000
  Si  Si634     1.0  0.9021988032013077  0.832718961393904  0.04504175951117378  1.0000
  O   O1507     1.0  0.8203126119211279  0.868656411678188  0.5912988574583106  1.0000
  O   O1508     1.0  0.054610377599890625  0.5647067315986491  0.38183999006944913  1.0000
  Si  Si635     1.0  0.9248476250573116  0.7491566060878173  0.5236890087241729  1.0000
  O   O1509     1.0  0.16552763053111527  0.7010548805530094  0.9713687423614797  1.0000
  O   O1510     1.0  0.555245409480822  0.14335374384307814  0.41202167047773086  1.0000
  Si  Si636     1.0  0.19528016774019577  0.5357580722654587  0.8468501663983118  1.0000
  O   O1511     1.0  0.330809088265914  0.3054130460075963  0.5913461365030872  1.0000
  O   O1512     1.0  0.3693166727958415  0.0612237053938975  0.6015552754433755  1.0000
  Si  Si637     1.0  0.21586530181140381  0.9776735167402436  0.7580503189628974  1.0000
  O   O1513     1.0  0.7331326864163626  0.6586080497269521  0.38716654360817854  1.0000
  O   O1514     1.0  0.1849822940295481  0.12665626436975436  0.11311016917068098  1.0000
  Si  Si638     1.0  0.8228178752859073  0.3649481612068375  0.2405006536240819  1.0000
  O   O1515     1.0  0.9728881819383964  0.45092013511362705  0.5476583245435458  1.0000
  O   O1516     1.0  0.016124292254004934  0.7340619567378293  0.6843657864405079  1.0000
  Si  Si639     1.0  0.9275444834020025  0.9203121763823068  0.6239548384120518  1.0000
  O   O1517     1.0  0.9065086380038169  0.43338498179710483  0.6630124361226929  1.0000
  O   O1518     1.0  0.2725413976960641  0.028025322091638518  0.7288172070946919  1.0000
  Si  Si640     1.0  0.042256117446708805  0.7286629386471425  0.545578733130845  1.0000
  O   O1519     1.0  0.22543359557746573  0.41743932193987354  0.5414319576790716  1.0000
  O   O1520     1.0  0.21230879892773383  0.39059137069953165  0.8136532746977903  1.0000
  Si  Si641     1.0  0.6744127108010485  0.9346418207875378  0.3045966904578008  1.0000
  O   O1521     1.0  0.9625528720602268  0.7386223110205312  0.2518702422461987  1.0000
  O   O1522     1.0  0.7173350452994077  0.7476747453622665  0.43682187542338546  1.0000
  Si  Si642     1.0  0.8210591810831288  0.7758650843473514  0.2354710283495025  1.0000
  O   O1523     1.0  0.04410222150701046  0.18574795498555388  0.3022291098358332  1.0000
  O   O1524     1.0  0.8682024504125548  0.21447983778318438  0.8737412286219746  1.0000
  Si  Si643     1.0  0.9356662603964366  0.5201458847977686  0.0580679453190061  1.0000
  O   O1525     1.0  0.42214257924372356  0.012330713859864971  0.6136462676029046  1.0000
  O   O1526     1.0  0.9247084585019563  0.04579466505891513  0.61896963623422  1.0000
  Si  Si644     1.0  0.9843633498864325  0.43933116258822547  0.8583957821232017  1.0000
  O   O1527     1.0  0.9896338081114865  0.2233673466777856  0.2820766877189652  1.0000
  O   O1528     1.0  0.040676637755554884  0.484321018543022  0.41258108649474484  1.0000
  Si  Si645     1.0  0.3128061531981447  0.3590437060416438  0.3674338587584837  1.0000
  O   O1529     1.0  0.7702958799590182  0.5440939948285792  0.5766949986418393  1.0000
  O   O1530     1.0  0.9010570641308429  0.20448078979432815  0.955664445063164  1.0000
  Si  Si646     1.0  0.4584482983414106  0.9924316668466514  0.10444943949595523  1.0000
  O   O1531     1.0  0.31020196883120094  0.9900991988077594  0.8821517108246394  1.0000
  O   O1532     1.0  0.8607859960528467  0.05070289441759155  0.935726475485279  1.0000
  Si  Si647     1.0  0.635128463605248  0.0626556366931037  0.8648743766363817  1.0000
  O   O1533     1.0  0.03294425267279639  0.03430100474732833  0.17750193326046212  1.0000
  O   O1534     1.0  0.18484533585994747  0.7520140798636051  0.03892406573026368  1.0000
  Si  Si648     1.0  0.8180862794956895  0.18111553348172799  0.5069422467127237  1.0000
  O   O1535     1.0  0.8420852017799936  0.7929920692424278  0.9253466678178041  1.0000
  O   O1536     1.0  0.15914436309501045  0.7443880526987642  0.8048587684967107  1.0000
  Si  Si649     1.0  0.8687657270097223  0.37637660947158835  0.41841774851248803  1.0000
  O   O1537     1.0  0.998777234998517  0.2784113945460058  0.7304870459045985  1.0000
  O   O1538     1.0  0.7681792514881524  0.6174717840066012  0.11216454274698531  1.0000
  Si  Si650     1.0  0.01479042536595625  0.9350350178264434  0.6853931913801753  1.0000
  O   O1539     1.0  0.5238952015640352  0.7385754787875485  0.22496759453808934  1.0000
  O   O1540     1.0  0.01583774276282123  0.5044924276792135  0.993001510650435  1.0000
  Si  Si651     1.0  0.6524118999323383  0.8765378841985536  0.6212584702507644  1.0000
  O   O1541     1.0  0.8861867702075511  0.7110199144791133  0.3520378861882684  1.0000
  O   O1542     1.0  0.6919327949177211  0.027768247900840645  0.08523317788310938  1.0000
  Si  Si652     1.0  0.008688232758331917  0.07591688655973065  0.7365370707715233  1.0000
  O   O1543     1.0  0.8736136866790085  0.05885275560204081  0.31827202731001003  1.0000
  O   O1544     1.0  0.06052313880949615  0.6958213870341166  0.5214750866120432  1.0000
  Si  Si653     1.0  0.3545259486587221  0.2823487253880836  0.7477454547979835  1.0000
  O   O1545     1.0  0.020255031977278636  0.5640566118425061  0.6640789798987294  1.0000
  O   O1546     1.0  0.17690479827658454  0.5401935715002731  0.3196082311999968  1.0000
  Si  Si654     1.0  0.40191917336608224  0.057292675475398194  0.9546700152731326  1.0000
  O   O1547     1.0  0.11945467039451348  0.09910592354729256  0.2657359530820206  1.0000
  O   O1548     1.0  0.1734476268495034  0.4941271617637048  0.442408381952261  1.0000
  Si  Si655     1.0  0.6555238873436936  0.8479026070440056  0.8798070797334311  1.0000
  O   O1549     1.0  0.6274063273759142  0.8812857169801166  0.8647563389208391  1.0000
  O   O1550     1.0  0.5704699975934903  0.048290745977001434  0.24088604146735415  1.0000
  Si  Si656     1.0  0.1759928433978714  0.9620433917873957  0.6951993016745434  1.0000
  O   O1551     1.0  0.2617889574672704  0.10667881062777808  0.8757689910704831  1.0000
  O   O1552     1.0  0.9899562057073068  0.2599250671734035  0.8157030340897043  1.0000
  Si  Si657     1.0  0.5271148929544618  0.9883896574906208  0.936701087307031  1.0000
  O   O1553     1.0  0.8401458427251051  0.37441132898681484  0.7925834252756193  1.0000
  O   O1554     1.0  0.11828826002569548  0.8253445949491125  0.28431251768753574  1.0000
  Si  Si658     1.0  0.27563404056325586  0.016728787616535876  0.8810078130339705  1.0000
  O   O1555     1.0  0.07793600515465239  0.3620715854421051  0.8971933943042102  1.0000
  O   O1556     1.0  0.22316449783414932  0.3421979015706014  0.9056305116949107  1.0000
  Si  Si659     1.0  0.34935778681497026  0.11433402502603895  0.2986669752851553  1.0000
  O   O1557     1.0  0.7527789333652977  0.9530880572899106  0.8196791132687807  1.0000
  O   O1558     1.0  0.900523297836741  0.11739548559363805  0.46328131818486146  1.0000
  Si  Si660     1.0  0.8719926976391636  0.8155619084546116  0.6847374256056633  1.0000
  O   O1559     1.0  0.7653926848843812  0.6512970331457498  0.3085361282283782  1.0000
  O   O1560     1.0  0.19035459903625318  0.9037997778002517  0.28579420986086823  1.0000
  Si  Si661     1.0  0.6268271841270635  0.1500854384411505  0.10211412082203511  1.0000
  O   O1561     1.0  0.9993536656139479  0.6652285313715055  0.900234146175662  1.0000
  O   O1562     1.0  0.39432491743491266  0.032194972759562526  0.9721895059349458  1.0000
  Si  Si662     1.0  0.08864026532091027  0.2752562249257535  0.9042304869617916  1.0000
  O   O1563     1.0  0.015989722446333343  0.6649631243405086  0.3699381793969828  1.0000
  O   O1564     1.0  0.2897487746991542  0.8397510441683788  0.712488713737157  1.0000
  Si  Si663     1.0  0.12893379659334855  0.8295399936912493  0.3398085431682356  1.0000
  O   O1565     1.0  0.8672995042940967  0.7883895404503662  0.8064130896369859  1.0000
  O   O1566     1.0  0.8488436439319402  0.32408157470976307  0.9377233743556481  1.0000
  Si  Si664     1.0  0.8162569735250883  0.3965095482175769  0.13580926500587523  1.0000
  O   O1567     1.0  0.6367653957473403  0.06734634987074271  0.05743311202231197  1.0000
  O   O1568     1.0  0.2533562056088567  0.41961108181435175  0.11099810628885325  1.0000
  Si  Si665     1.0  0.07517605512747685  0.09192744644192688  0.6585929776727564  1.0000
  O   O1569     1.0  0.7297257687466988  0.8590471552768209  0.8458974047356305  1.0000
  O   O1570     1.0  0.8008481785189647  0.10461269749201887  0.6657891152186424  1.0000
  Si  Si666     1.0  0.40175251072440554  0.8862505415304444  0.5142736237064283  1.0000
  O   O1571     1.0  0.029861495459966164  0.23105469113243782  0.21062336252060931  1.0000
  O   O1572     1.0  0.8453209399473314  0.5520962858504666  0.326342220679702  1.0000
  Si  Si667     1.0  0.9600318305982684  0.6321566846804252  0.11337858703033885  1.0000
  O   O1573     1.0  0.07336868776211547  0.19843091249762998  0.7499165793056638  1.0000
  O   O1574     1.0  0.5274270019461667  0.8177382686839042  0.8727810892909001  1.0000
  Si  Si668     1.0  0.48616147214100397  0.9040636456959368  0.8912010350002104  1.0000
  O   O1575     1.0  0.5995189314092565  0.13994670898268932  0.8398490629162692  1.0000
  O   O1576     1.0  0.35758895470999236  0.27910422753727276  0.2644371264870345  1.0000
  Si  Si669     1.0  0.8954680709142285  0.7889513923315015  0.8321581535185828  1.0000
  O   O1577     1.0  0.29636832219539316  0.33012063500119176  0.9979034457979242  1.0000
  O   O1578     1.0  0.9873458364344266  0.271198513719803  0.05735397629626075  1.0000
  Si  Si670     1.0  0.2979364847416107  0.25706186390610525  0.18833090196082058  1.0000
  O   O1579     1.0  0.33426246312471714  0.2381467261958776  0.4199013699918199  1.0000
  O   O1580     1.0  0.24385324078372694  0.32024735857678815  0.1354091679575922  1.0000
  Si  Si671     1.0  0.7463471049804296  0.7255022283130093  0.08323741480802822  1.0000
  O   O1581     1.0  0.21536776151121184  0.029079895913511566  0.9815184823330964  1.0000
  O   O1582     1.0  0.3444962004569983  0.845502935100925  0.9854961940512735  1.0000
  Si  Si672     1.0  0.23525987973669704  0.790667988903257  0.8709584451312917  1.0000
  O   O1583     1.0  0.2546826820080078  0.005297647555509578  0.8497672724533419  1.0000
  O   O1584     1.0  0.5583521741598682  0.7148814619830633  0.9430379064733071  1.0000
  Si  Si673     1.0  0.172829839020897  0.29473161940468207  0.8972513662091016  1.0000
  O   O1585     1.0  0.16012282027579755  0.9441832910771534  0.7207470025668133  1.0000
  O   O1586     1.0  0.46278664374865247  0.8735255181675843  0.0175603735068795  1.0000
  Si  Si674     1.0  0.23433581017970415  0.8212642294826576  0.9810267752201526  1.0000
  O   O1587     1.0  0.7642493917183963  0.5372983929009421  0.6997714606149735  1.0000
  O   O1588     1.0  0.06263403723584103  0.7176602032680417  0.9615028102809847  1.0000
  Si  Si675     1.0  0.030540105165321452  0.2836952031360582  0.6075099490691482  1.0000
  O   O1589     1.0  0.26674619713951836  0.15391350781421342  0.91371483093388  1.0000
  O   O1590     1.0  0.5338544678264728  0.8291378417756774  0.17138804959024867  1.0000
  Si  Si676     1.0  0.46254403574153663  0.2086940235176748  0.818441978039881  1.0000
  O   O1591     1.0  0.015872404137752767  0.012874091070113116  0.33779682371460373  1.0000
  O   O1592     1.0  0.9923627292304789  0.08439242704942201  0.22250286385331264  1.0000
  Si  Si677     1.0  0.15189556150567815  0.13103429497797503  0.5424964174460429  1.0000
  O   O1593     1.0  0.9508739919204585  0.19768848737149627  0.17177893841800818  1.0000
  O   O1594     1.0  0.9520008328769878  0.8280365875997246  0.41614327971910026  1.0000
  Si  Si678     1.0  0.3267632299066507  0.2474332854956228  0.9965057291115192  1.0000
  O   O1595     1.0  0.2543495471441058  0.1951379659771765  0.03889696754139864  1.0000
  O   O1596     1.0  0.10702700436325321  0.693370285426756  0.019778951501915495  1.0000
  Si  Si679     1.0  0.7872090897456088  0.8076828071708618  0.05547640484840759  1.0000
  O   O1597     1.0  0.7804738922131303  0.5765532649750685  0.8231444564980391  1.0000
  O   O1598     1.0  0.023411237257346864  0.7430712276703494  0.8919578827513198  1.0000
  Si  Si680     1.0  0.08135490047686758  0.5350008095623764  0.3555349668270364  1.0000
  O   O1599     1.0  0.11545010611864998  0.22365604876343168  0.6084749387220529  1.0000
  O   O1600     1.0  0.6876703370113586  0.701671637639724  0.69707504060455  1.0000
  Si  Si681     1.0  0.621583406797521  0.17281901230364435  0.754554768822626  1.0000
  O   O1601     1.0  0.29841080871984105  0.13976165160638  0.5540736266133635  1.0000
  O   O1602     1.0  0.9905838194155477  0.6774723141917943  0.057167612908770746  1.0000
  Si  Si682     1.0  0.9957482947543564  0.9902187052547377  0.22089867915016728  1.0000
  O   O1603     1.0  0.520077824039469  0.08820628075084568  0.7160834585221377  1.0000
  O   O1604     1.0  0.29486016704575385  0.0752539160870185  0.03264014251828764  1.0000
  Si  Si683     1.0  0.21884826265458587  0.532429318348451  0.5001243170837886  1.0000
  O   O1605     1.0  0.5063949535427428  0.08980552486795056  0.18203038758725565  1.0000
  O   O1606     1.0  0.07868144204685233  0.7031332454643802  0.2681748669261397  1.0000
  Si  Si684     1.0  0.14740163969054748  0.9302075236195758  0.06310693993037857  1.0000
  O   O1607     1.0  0.18349535711817358  0.35032912610395234  0.6258496228767808  1.0000
  O   O1608     1.0  0.8106557194507122  0.1244008882459366  0.5838093068731434  1.0000
  Si  Si685     1.0  0.09177011911678354  0.6697688433194845  0.5044376027110622  1.0000
  O   O1609     1.0  0.48028204064876734  0.06026961661907415  0.3488243134207929  1.0000
  O   O1610     1.0  0.6577087438522078  0.7291093079414375  0.6180936134629907  1.0000
  Si  Si686     1.0  0.9638556016077529  0.8745597927695246  0.2871145680025524  1.0000
  O   O1611     1.0  0.8259981282521707  0.6088911087369403  0.9432826548421186  1.0000
  O   O1612     1.0  0.2704398742401171  0.9549560596062558  0.06708481951881741  1.0000
  Si  Si687     1.0  0.9518707177186368  0.00031018407570246786  0.3806865471868199  1.0000
  O   O1613     1.0  0.1596051672315241  0.8499647959186308  0.7834374101702561  1.0000
  O   O1614     1.0  0.5993559058687443  0.03816260049464625  0.5460968731885831  1.0000
  Si  Si688     1.0  0.41790890810339704  0.2934065540285847  0.7285861963590813  1.0000
  O   O1615     1.0  0.708517540431527  0.9250289066954049  0.8720110607778526  1.0000
  O   O1616     1.0  0.9701633466050014  0.7220191147782483  0.40628763691715775  1.0000
  Si  Si689     1.0  0.96997970104875  0.3712002083901673  0.46820016468525577  1.0000
  O   O1617     1.0  0.7235062231676963  0.0068705074899702585  0.1720505928012872  1.0000
  O   O1618     1.0  0.10101851134489691  0.2851346884119288  0.6762151605972664  1.0000
  Si  Si690     1.0  0.403818289504623  0.2712354544538745  0.8237367606855924  1.0000
  O   O1619     1.0  0.5882394886076229  0.7094643404846511  0.4185181751009013  1.0000
  O   O1620     1.0  0.7960838653188859  0.8474959494106407  0.7871867291761011  1.0000
  Si  Si691     1.0  0.12499390172508285  0.6224844953942632  0.3195101824500172  1.0000
  O   O1621     1.0  0.42652565107587115  0.07388252266788287  0.7423277549215678  1.0000
  O   O1622     1.0  0.6429698205749715  0.05225881001665388  0.5515575835313518  1.0000
  Si  Si692     1.0  0.9748000748991795  0.11227057444502991  0.09485639362935987  1.0000
  O   O1623     1.0  0.2630111330879681  0.0651020986259068  0.27588922388016496  1.0000
  O   O1624     1.0  0.3807069274193282  0.8670678430112926  0.9446706955996896  1.0000
  Si  Si693     1.0  0.8377273491426444  0.8128738244346025  0.16571244205316904  1.0000
  O   O1625     1.0  0.9128740335988118  0.6092277631752242  0.9440165466081901  1.0000
  O   O1626     1.0  0.46873707121504976  0.19105398590644215  0.2908746645769452  1.0000
  Si  Si694     1.0  0.10746774618798259  0.1575979676412188  0.42485169912907117  1.0000
  O   O1627     1.0  0.08254676490685557  0.5962565045461181  0.3426773177856128  1.0000
  O   O1628     1.0  0.7832307111964417  0.9214463362273014  0.21206594608621043  1.0000
  Si  Si695     1.0  0.8004990795071254  0.30778479630845806  0.8939939496277286  1.0000
  O   O1629     1.0  0.8368034526475012  0.28964982315548193  0.7860094631521297  1.0000
  O   O1630     1.0  0.23260586714892187  0.3829248873427786  0.28276333195662445  1.0000
  Si  Si696     1.0  0.19445883818529772  0.5830591316563232  0.4302599279427514  1.0000
  O   O1631     1.0  0.6898538611484668  0.8033286902429738  0.20139381590833172  1.0000
  O   O1632     1.0  0.04514534518877652  0.35491734583062473  0.41877760616247056  1.0000
  Si  Si697     1.0  0.6086543154065917  0.07627103180202731  0.33539787005915195  1.0000
  O   O1633     1.0  0.8840696011245388  0.2419559976099205  0.28575004789992997  1.0000
  O   O1634     1.0  0.38971855965257673  0.18158252251701154  0.9135728897493784  1.0000
  Si  Si698     1.0  0.2642540296527095  0.9476680957401284  0.3969748482582388  1.0000
  O   O1635     1.0  0.8662472272083651  0.4331156875065346  0.8379843177806426  1.0000
  O   O1636     1.0  0.05215185604044132  0.04711450295681881  0.6028148987810183  1.0000
  Si  Si699     1.0  0.1294428907678177  0.7809291052739752  0.6617226201683444  1.0000
  O   O1637     1.0  0.15001139551206163  0.7369026020716988  0.2403438705304688  1.0000
  O   O1638     1.0  0.7944821972031533  0.29639734247199295  0.949372359067535  1.0000
  Si  Si700     1.0  0.8637622897371453  0.2862086087003098  0.7491171464743748  1.0000
  O   O1639     1.0  0.541058128923994  0.9720635953898166  0.8822857357511734  1.0000
  O   O1640     1.0  0.33039792842933546  0.9502390797549944  0.31862684868286223  1.0000
  Si  Si701     1.0  0.724202742328579  0.7617259948233737  0.9968896296985331  1.0000
  O   O1641     1.0  0.15574279697501459  0.4106888565865016  0.8256635381946295  1.0000
  O   O1642     1.0  0.12092264005970756  0.5501472284034251  0.22246944954708936  1.0000
  Si  Si702     1.0  0.19733326764091394  0.1169045230579704  0.7500442067446733  1.0000
  O   O1643     1.0  0.7751143250946528  0.09722829757530402  0.267890366227709  1.0000
  O   O1644     1.0  0.026019263352585597  0.11238869744554394  0.21613081748365695  1.0000
  Si  Si703     1.0  0.6397794906400737  0.7020561068046923  0.9903787609494558  1.0000
  O   O1645     1.0  0.5951145641460548  0.9114855496108338  0.17970991550256565  1.0000
  O   O1646     1.0  0.11047810167340776  0.8967436256602663  0.5420003054418606  1.0000
  Si  Si704     1.0  0.4896526561038891  0.9387258386363112  0.5344955102048541  1.0000
  O   O1647     1.0  0.6422983093406839  0.9571987099939416  0.42926614524391765  1.0000
  O   O1648     1.0  0.03206933039531113  0.49208993653287575  0.31232501719424993  1.0000
  Si  Si705     1.0  0.10802309379079347  0.6062033146612853  0.01851825629833398  1.0000
  O   O1649     1.0  0.22031296396438743  0.9873341477475563  0.6156423162951244  1.0000
  O   O1650     1.0  0.12017555092134166  0.6720378457197757  0.5252945787274437  1.0000
  Si  Si706     1.0  0.9410506585820748  0.15269738227202295  0.284592739901425  1.0000
  O   O1651     1.0  0.7315915924260896  0.16435978647307387  0.8254212870454242  1.0000
  O   O1652     1.0  0.7481464531057181  0.9972595074256451  0.07818379583004224  1.0000
  Si  Si707     1.0  0.5975936570707728  0.7401842987941823  0.1950413893246857  1.0000
  O   O1653     1.0  0.6533397752152956  0.8098656149875514  0.28750780457421266  1.0000
  O   O1654     1.0  0.10865567527707108  0.4654189878230235  0.6809145987343751  1.0000
  Si  Si708     1.0  0.4853329262928805  0.7683927757391225  0.9164621066228594  1.0000
  O   O1655     1.0  0.06805878110609713  0.03772756365070445  0.8689219173816568  1.0000
  O   O1656     1.0  0.24852090512398486  0.9341797838280962  0.9684646686231161  1.0000
  Si  Si709     1.0  0.14056400142262032  0.6157985215502497  0.15776696433665907  1.0000
  O   O1657     1.0  0.7968602969741255  0.6441222936707366  0.08507132733915705  1.0000
  O   O1658     1.0  0.4978300959116585  0.8692024426713875  0.6877218812211806  1.0000
  Si  Si710     1.0  0.20263821463796672  0.5487445766162358  0.3224560092937918  1.0000
  O   O1659     1.0  0.5234978376147531  0.8739045017817684  0.36147453605144014  1.0000
  O   O1660     1.0  0.522601027773946  0.08934282004856152  0.28815196018507133  1.0000
  Si  Si711     1.0  0.5664816775015328  0.962485725010911  0.634333152081204  1.0000
  O   O1661     1.0  0.39170863751883933  0.9206316979427367  0.4966264726366864  1.0000
  O   O1662     1.0  0.9109847667181573  0.38436222749481597  0.6905910924637265  1.0000
  Si  Si712     1.0  0.794255230737445  0.07799853581025756  0.6728479383809357  1.0000
  O   O1663     1.0  0.5599315755278131  0.7622645137395939  0.7717296044081744  1.0000
  O   O1664     1.0  0.2225083090618822  0.8962753758419061  0.36506831042455395  1.0000
  Si  Si713     1.0  0.9685561617828068  0.173193339488154  0.4617716682041737  1.0000
  O   O1665     1.0  0.1517631559004412  0.21156295691185198  0.6939048395858313  1.0000
  O   O1666     1.0  0.31808463041504925  0.3590271078657504  0.43056408506749605  1.0000
  Si  Si714     1.0  0.6644416040254723  0.7304573465315647  0.9182424757405718  1.0000
  O   O1667     1.0  0.2802623811270152  0.09583506800946537  0.6782228760619015  1.0000
  O   O1668     1.0  0.718143297956011  0.8449853142304604  0.10519759508171446  1.0000
  Si  Si715     1.0  0.3265557909328237  0.2921987044749399  0.23093332666839794  1.0000
  O   O1669     1.0  0.755998033705695  0.8189947406614435  0.024369342475871136  1.0000
  O   O1670     1.0  0.3366402134294444  0.9983030406046373  0.15077151101157374  1.0000
  Si  Si716     1.0  0.1185441436595903  0.8559342863006153  0.9765956788557334  1.0000
  O   O1671     1.0  0.2620374860548722  0.20947504623701896  0.24383824070254811  1.0000
  O   O1672     1.0  0.5832561040496427  0.12294830845950065  0.701640929278344  1.0000
  Si  Si717     1.0  0.8975942149840151  0.6433139788452228  0.956272460466609  1.0000
  O   O1673     1.0  0.9215110761884404  0.22212543554831196  0.033486851332501115  1.0000
  O   O1674     1.0  0.1258970373719884  0.7501914922861819  0.9061149732162256  1.0000
  Si  Si718     1.0  0.08987148822897405  0.6657351237029969  0.8166908065227056  1.0000
  O   O1675     1.0  0.24796470373966903  0.7977572506691799  0.03104005111664888  1.0000
  O   O1676     1.0  0.8006475512902398  0.250863904441618  0.24060521902252802  1.0000
  Si  Si719     1.0  0.835743476780454  0.1265740140802178  0.3658347256649896  1.0000
  O   O1677     1.0  0.9575042408861147  0.23669970765189965  0.5377119088064053  1.0000
  O   O1678     1.0  0.7931880827587483  0.6974523207134792  0.21056940027811352  1.0000
  Si  Si720     1.0  0.19579765658840712  0.2662794780709641  0.9970146130430044  1.0000
  O   O1679     1.0  0.08993585394764816  0.3480772393636298  0.9902288511515752  1.0000
  O   O1680     1.0  0.7652509180523309  0.6231633335941189  0.7735214871753742  1.0000
  Si  Si721     1.0  0.5321810570301869  0.024066685855725696  0.6036552853192156  1.0000
  O   O1681     1.0  0.8727161568932212  0.17584961628705534  0.946141049899611  1.0000
  O   O1682     1.0  0.3073450060388482  0.22529836618283555  0.21056653979567228  1.0000
  Si  Si722     1.0  0.3972601510152741  0.8229895068714914  0.3197195102034229  1.0000
  O   O1683     1.0  0.027049778510063932  0.632679684226408  0.7182570025978804  1.0000
  O   O1684     1.0  0.08373415538956998  0.26575992370935797  0.8479958550522805  1.0000
  Si  Si723     1.0  0.18302766752063904  0.7231089482107621  0.26279638597135313  1.0000
  O   O1685     1.0  0.2693987299971234  0.8349412221594742  0.4994146151546119  1.0000
  O   O1686     1.0  0.875531623363992  0.33243408696993093  0.8634239838545908  1.0000
  Si  Si724     1.0  0.9198248466003593  0.8852942405474025  0.8165176446938612  1.0000
  O   O1687     1.0  0.9304930975403335  0.5814572971316705  0.20474430523723752  1.0000
  O   O1688     1.0  0.5896001365187744  0.8336738390719509  0.32138941337524357  1.0000
  Si  Si725     1.0  0.9194417659005821  0.1942561957171562  0.008246205587292112  1.0000
  O   O1689     1.0  0.13025281609914882  0.7514742656124429  0.6315855715584161  1.0000
  O   O1690     1.0  0.10465485116066782  0.6592253532210315  0.9465277362981008  1.0000
  Si  Si726     1.0  0.7648329906724558  0.6113841236981937  0.8321201890064003  1.0000
  O   O1691     1.0  0.15915068947712938  0.45553934182199496  0.5027454863045555  1.0000
  O   O1692     1.0  0.8429215127271537  0.7548944375846013  0.6428161491588422  1.0000
  Si  Si727     1.0  0.8958218828338775  0.5689651701305195  0.4243451093623302  1.0000
  O   O1693     1.0  0.7355938575060988  0.7009748602617282  0.7306358256001446  1.0000
  O   O1694     1.0  0.8982084590594421  0.5692595317572176  0.8173839600660548  1.0000
  Si  Si728     1.0  0.3032247179363632  0.9252640179416862  0.07525937143136512  1.0000
  O   O1695     1.0  0.7827095121562884  0.7574145397556943  0.9061593148731348  1.0000
  O   O1696     1.0  0.03793887169826387  0.6987172554799044  0.3323714184050621  1.0000
  Si  Si729     1.0  0.8614902899724394  0.953323590115607  0.39302489947006974  1.0000
  O   O1697     1.0  0.8940494637825378  0.11062636631016581  0.1533388467116146  1.0000
  O   O1698     1.0  0.13563700781295107  0.3125954404780708  0.39531387195788187  1.0000
  Si  Si730     1.0  0.7326358282790336  0.990877706345988  0.5078554995661633  1.0000
  O   O1699     1.0  0.8096722564418564  0.20122168328490891  0.2839181099172263  1.0000
  O   O1700     1.0  0.6542205305178505  0.14924833080278874  0.6219906856446761  1.0000
  Si  Si731     1.0  0.3842910392549473  0.9974265631206682  0.8214432368321245  1.0000
  O   O1701     1.0  0.9351757610235802  0.6658024922680364  0.3179022304844319  1.0000
  O   O1702     1.0  0.929869377451085  0.8981232361632444  0.311592222020965  1.0000
  Si  Si732     1.0  0.04737244992365141  0.9670276724027445  0.05019733559612609  1.0000
  O   O1703     1.0  0.9543393697243997  0.2671607832269186  0.6262864958644015  1.0000
  O   O1704     1.0  0.6801534322653485  0.6656736707251403  0.37858021004848647  1.0000
  Si  Si733     1.0  0.11278042501546923  0.270094811415306  0.075292168786716  1.0000
  O   O1705     1.0  0.2066094670161788  0.7224602358549357  0.8616968521166111  1.0000
  O   O1706     1.0  0.9438198890302286  0.7656199468293906  0.5427189121232983  1.0000
  Si  Si734     1.0  0.649258794307131  0.02368617940503493  0.4068762608415661  1.0000
  O   O1707     1.0  0.8195893452580456  0.5857288153189446  0.41259770423281844  1.0000
  O   O1708     1.0  0.18907220969842686  0.491775874534039  0.5325336253891146  1.0000
  Si  Si735     1.0  0.8711930753096592  0.32709395502891175  0.6767745909194489  1.0000
  O   O1709     1.0  0.4495656424651653  0.9012020903756358  0.11240495889527971  1.0000
  O   O1710     1.0  0.9595985080691775  0.3061715894298472  0.8745182277254059  1.0000
  Si  Si736     1.0  0.2697803003754659  0.8146089714283643  0.8182852329721181  1.0000
  O   O1711     1.0  0.0872934966371158  0.15860541237540926  0.4761408173240855  1.0000
  O   O1712     1.0  0.20841899878023565  0.17753750294741777  0.5436318365427578  1.0000
  Si  Si737     1.0  0.06447261517776494  0.5275492175408798  0.20194181044021442  1.0000
  O   O1713     1.0  0.005390218898939062  0.23418495533091194  0.5833585669798121  1.0000
  O   O1714     1.0  0.9473073045109405  0.2544631644317707  0.0052884212797403305  1.0000
  Si  Si738     1.0  0.10580357187359889  0.5893651704625613  0.38873882584857594  1.0000
  O   O1715     1.0  0.5408504783399871  0.1347221813488314  0.8590449711378337  1.0000
  O   O1716     1.0  0.827858654146293  0.8368097383579212  0.9776282641776876  1.0000
  Si  Si739     1.0  0.7685472810653411  0.12820185589194918  0.062336289026670676  1.0000
  O   O1717     1.0  0.24232550880156176  0.11084058574662971  0.5344483603471077  1.0000
  O   O1718     1.0  0.03215275828428457  0.9088927983989142  0.8276882179045902  1.0000
  Si  Si740     1.0  0.13068601453878845  0.9044002395907699  0.5055107549376411  1.0000
  O   O1719     1.0  0.4275676254220477  0.056744311077994825  0.9947369704132888  1.0000
  O   O1720     1.0  0.17797263947754013  0.045426576006316534  0.5117584903854195  1.0000
  Si  Si741     1.0  0.5869243849499204  0.7490013960277014  0.8150311624880081  1.0000
  O   O1721     1.0  0.1541374240526941  0.07062870780210176  0.3523829169479302  1.0000
  O   O1722     1.0  0.5254589758568461  0.8675547513640514  0.46100804586279975  1.0000
  Si  Si742     1.0  0.5362719538644621  0.8806250951257316  0.41409858378794684  1.0000
  O   O1723     1.0  0.9303354152827935  0.8254535527933523  0.010402133894489045  1.0000
  O   O1724     1.0  0.6867838645501279  0.05238482984322787  0.6088695506077879  1.0000
  Si  Si743     1.0  0.9402916905699608  0.1513972213197257  0.839045941170972  1.0000
  O   O1725     1.0  0.4273025894240757  0.15598623229196007  0.6495919210837307  1.0000
  O   O1726     1.0  0.02507953766355293  0.003615525498210943  0.7499604196647829  1.0000
  Si  Si744     1.0  0.8555599870114196  0.022423161323751196  0.635773223232658  1.0000
  O   O1727     1.0  0.09213221806647003  0.8932731387633878  0.841760247658764  1.0000
  O   O1728     1.0  0.9455669607763566  0.9244503619954499  0.08612657260072647  1.0000
  Si  Si745     1.0  0.8633912523173356  0.019498247973593875  0.9304741510284459  1.0000
  O   O1729     1.0  0.8955438881966732  0.3596286511092624  0.7650236924531107  1.0000
  O   O1730     1.0  0.5945994440763832  0.77540772167774  0.8256483289089585  1.0000
  Si  Si746     1.0  0.8393466458729637  0.900591167083346  0.9022500780167675  1.0000
  O   O1731     1.0  0.690811418523199  0.11470931839100369  0.7817029993774597  1.0000
  O   O1732     1.0  0.13303560156353536  0.37855521637154604  0.8560460241629829  1.0000
  Si  Si747     1.0  0.38065882229366793  0.2714283786268818  0.9282853854297772  1.0000
  O   O1733     1.0  0.43915468022314946  0.866369799192829  0.5109361169129443  1.0000
  O   O1734     1.0  0.24287822026488948  0.3385044326061088  0.23349493999292936  1.0000
  Si  Si748     1.0  0.22135591819376046  0.31480961426254805  0.880167916305193  1.0000
  O   O1735     1.0  0.03475543731841165  0.1917189733088074  0.4038748785364809  1.0000
  O   O1736     1.0  0.41397362039327285  0.7965701977816894  0.8297968371268617  1.0000
  Si  Si749     1.0  0.3500480221897524  0.8144363971217375  0.3425777756467922  1.0000
  O   O1737     1.0  0.9382508428411913  0.5012729617218596  0.5117823062727603  1.0000
  O   O1738     1.0  0.7438812751579401  0.968592435444264  0.5562965727088127  1.0000
  Si  Si750     1.0  0.10682194462094763  0.1935084494179735  0.747343145088756  1.0000
  O   O1739     1.0  0.9601533428082039  0.7571204753983426  0.12181072081705348  1.0000
  O   O1740     1.0  0.6148982492458294  0.9460939825764265  0.14549625799389013  1.0000
  Si  Si751     1.0  0.3810437106142106  0.8153566158554612  0.8109531404944262  1.0000
  O   O1741     1.0  0.0028696723091509698  0.7834780800690551  0.7473294949812681  1.0000
  O   O1742     1.0  0.1928837556175952  0.5712570388047007  0.37291451330180847  1.0000
  Si  Si752     1.0  0.7789058016154327  0.05551277454270868  0.8661057942787739  1.0000
  O   O1743     1.0  0.1816699491537594  0.8076705139038584  0.6120738246053583  1.0000
  O   O1744     1.0  0.3210741175657983  0.36682587355300716  0.673651718399419  1.0000
  Si  Si753     1.0  0.7244280939050228  0.7642398226892463  0.5978456174074085  1.0000
  O   O1745     1.0  0.6498819895943486  0.8636418206473254  0.5643547270577305  1.0000
  O   O1746     1.0  0.6846591287087858  0.9032292425252543  0.27666228885073063  1.0000
  Si  Si754     1.0  0.7493084493029158  0.2058659399375041  0.39204074313475523  1.0000
  O   O1747     1.0  0.7530398889717785  0.6235669191439012  0.003546222716295069  1.0000
  O   O1748     1.0  0.263461532083039  0.3650031117842619  0.07998280881110613  1.0000
  Si  Si755     1.0  0.26180034329707197  0.07671901501415798  0.8949411402538235  1.0000
  O   O1749     1.0  0.7562810913252825  0.7548795087691739  0.21072660148080136  1.0000
  O   O1750     1.0  0.928504006751132  0.1440567399360235  0.4115603678784342  1.0000
  Si  Si756     1.0  0.9621836614899634  0.697669682121178  0.7434992985551151  1.0000
  O   O1751     1.0  0.8385228049009803  0.8399953161267618  0.36829688026649854  1.0000
  O   O1752     1.0  0.31828194863712717  0.835058705213056  0.8987749267435123  1.0000
  Si  Si757     1.0  0.08359596566633906  0.33573205738595013  0.04489523672428553  1.0000
  O   O1753     1.0  0.8120464866204925  0.3769557656312413  0.0934192931575291  1.0000
  O   O1754     1.0  0.8652213996562207  0.3481113076045212  0.42925222654860373  1.0000
  Si  Si758     1.0  0.8719861994193692  0.9350856383969013  0.894664593706577  1.0000
  O   O1755     1.0  0.4774148757009819  0.1050715543937869  0.6467939074733913  1.0000
  O   O1756     1.0  0.18224780754215994  0.12668908662288558  0.6930634580792157  1.0000
  Si  Si759     1.0  0.8430926184769748  0.4576864009128968  0.5970954416463059  1.0000
  O   O1757     1.0  0.8081291957620061  0.7651218666380527  0.18773839075607282  1.0000
  O   O1758     1.0  0.4238542635742021  0.10635942135214567  0.5007184636362527  1.0000
  Si  Si760     1.0  0.046208712975665076  0.19839043656188304  0.7181746709013896  1.0000
  O   O1759     1.0  0.3733598982250688  0.03444357834936819  0.06392940901054515  1.0000
  O   O1760     1.0  0.10723553704793774  0.21706935530534555  0.7879979027055829  1.0000
  Si  Si761     1.0  0.6811647121357534  0.15406327501848702  0.07604760892025535  1.0000
  O   O1761     1.0  0.01335176127345093  0.6586312341244546  0.6244505806058364  1.0000
  O   O1762     1.0  0.08609755137074951  0.7587435016999633  0.571324043645207  1.0000
  Si  Si762     1.0  0.8227550917833951  0.8784508106993842  0.7235528549562052  1.0000
  O   O1763     1.0  0.562664452355841  0.1602218989602245  0.5366386971521047  1.0000
  O   O1764     1.0  0.9543657328506685  0.559110881167974  0.31687759224628803  1.0000
  Si  Si763     1.0  0.663124412843874  0.8196309460831863  0.15528742227630501  1.0000
  O   O1765     1.0  0.8768691351307437  0.2069379200585788  0.7733098567855115  1.0000
  O   O1766     1.0  0.7536688427421117  0.053470753539129674  0.9005218448128262  1.0000
  Si  Si764     1.0  0.20018197451306477  0.9577886340295719  0.42829359378319193  1.0000
  O   O1767     1.0  0.9260360890084176  0.1586276771540656  0.7812553678821195  1.0000
  O   O1768     1.0  0.8972137693868261  0.18789107908729022  0.04441443166678054  1.0000
  Si  Si765     1.0  0.9243691939821549  0.35782240393373804  0.7364884232644144  1.0000
  O   O1769     1.0  0.9641219676812969  0.7910283963009606  0.2539469162018888  1.0000
  O   O1770     1.0  0.5916107139986662  0.022519037527185915  0.8094609973240635  1.0000
  Si  Si766     1.0  0.047021637207039856  0.33767096198747126  0.36605666581382734  1.0000
  O   O1771     1.0  0.35245376434147324  0.20654617054802377  0.6652303917324419  1.0000
  O   O1772     1.0  0.9651020631511135  0.6056563815377812  0.3181351111192441  1.0000
  Si  Si767     1.0  0.3148208507745404  0.22136735509143007  0.42857705996330225  1.0000
  O   O1773     1.0  0.3209970500336206  0.19710375973194874  0.3863465081899331  1.0000
  O   O1774     1.0  0.10771618117715485  0.2662415976582354  0.43477531009545456  1.0000
  Si  Si768     1.0  0.1220379600324154  0.35755628495616704  0.09165707715839902  1.0000
  O   O1775     1.0  0.20970604990762384  0.5916887581619166  0.5809687173747282  1.0000
  O   O1776     1.0  0.16686707298178596  0.7626072515845487  0.165730454323618  1.0000
  Si  Si769     1.0  0.10124026461582443  0.07453720504206998  0.11744627001479495  1.0000
  O   O1777     1.0  0.19643254941343083  0.5080226224358098  0.9915988159001552  1.0000
  O   O1778     1.0  0.1565475594945638  0.9982263604775433  0.001779103131502593  1.0000
  Si  Si770     1.0  0.9334758785466112  0.49793456697063626  0.2721935059680498  1.0000
  O   O1779     1.0  0.7575964344365761  0.9882310934115859  0.26749315182323063  1.0000
  O   O1780     1.0  0.9767753833187985  0.00487084247944869  0.1709105755507322  1.0000
  Si  Si771     1.0  0.616296276972518  0.9244899770679733  0.18973283952798004  1.0000
  O   O1781     1.0  0.9708818478042361  0.8918380273374712  0.24420603307547872  1.0000
  O   O1782     1.0  0.6795046065620219  0.8041804416702827  0.10081288792048484  1.0000
  Si  Si772     1.0  0.20954384148819188  0.4832308732183846  0.4458034232929141  1.0000
  O   O1783     1.0  0.1172506308310785  0.9928317903076608  0.8388793984406868  1.0000
  O   O1784     1.0  0.12119536809096666  0.6633801385218521  0.8104006896134741  1.0000
  Si  Si773     1.0  0.8412563230308079  0.9996870573507506  0.8401210862546652  1.0000
  O   O1785     1.0  0.8472280231763688  0.7892394175537826  0.1191263632068498  1.0000
  O   O1786     1.0  0.23643897487809085  0.9042329673792592  0.26364861662513583  1.0000
  Si  Si774     1.0  0.4466615387175748  0.16106706757271727  0.7923418928917528  1.0000
  O   O1787     1.0  0.9739413521039099  0.581717971662702  0.9293323888848225  1.0000
  O   O1788     1.0  0.8916345319445595  0.5226139473726753  0.8391150197520347  1.0000
  Si  Si775     1.0  0.8005140327763353  0.27165798534738606  0.4652061678355464  1.0000
  O   O1789     1.0  0.3661798378154902  0.9441278597070623  0.1148781543516362  1.0000
  O   O1790     1.0  0.07447607611644205  0.6956576545656034  0.6846969151085007  1.0000
  Si  Si776     1.0  0.19140121890611353  0.7674713202759884  0.341256379195269  1.0000
  O   O1791     1.0  0.16834461187071514  0.6118739988101922  0.6502048493286481  1.0000
  O   O1792     1.0  0.594854469640334  0.06161159788038039  0.9989781578438858  1.0000
  Si  Si777     1.0  0.2711277910074118  0.019843882383801  0.5123699801644306  1.0000
  O   O1793     1.0  0.8429514518622525  0.5905866702436685  0.8447600224001081  1.0000
  O   O1794     1.0  0.3443424530756554  0.09475114178714097  0.5217220741058488  1.0000
  Si  Si778     1.0  0.18490719176378378  0.1337616213912104  0.6334327653238228  1.0000
  O   O1795     1.0  0.9906459209637538  0.8613053617633842  0.3289077684641648  1.0000
  O   O1796     1.0  0.7845144672899516  0.24734458558119857  0.568827844584556  1.0000
  Si  Si779     1.0  0.19462274806159818  0.7201287445336158  0.06450883524304789  1.0000
  O   O1797     1.0  0.00187563959212719  0.3924726103880493  0.004547888870448049  1.0000
  O   O1798     1.0  0.6903092550927814  0.17630073566725543  0.3587321489728223  1.0000
  Si  Si780     1.0  0.03499346097413538  0.8052386643650905  0.8319223748540366  1.0000
  O   O1799     1.0  0.9976564319637631  0.4119239295511065  0.8177763170555513  1.0000
  O   O1800     1.0  0.9484323404210496  0.6231003035430421  0.7225698708209093  1.0000
  Si  Si781     1.0  0.5439317501336125  0.8380998689882643  0.8780086359135079  1.0000
  O   O1801     1.0  0.6367796603927159  0.09151201274910399  0.884418961024514  1.0000
  O   O1802     1.0  0.5991340345590245  0.8098947018259276  0.1281284760645718  1.0000
  Si  Si782     1.0  0.3768180164051181  0.07144048459617447  0.5471259502553159  1.0000
  O   O1803     1.0  0.7602170671446696  0.037881388671517524  0.16965613207739483  1.0000
  O   O1804     1.0  0.6838536443716288  0.9519260690527749  0.2625762025291307  1.0000
  Si  Si783     1.0  0.14918111238829973  0.6758206175330395  0.5376721466035643  1.0000
  O   O1805     1.0  0.37645121454262337  0.07182186112923229  0.12462378119216491  1.0000
  O   O1806     1.0  0.09501666164588393  0.08801886189407887  0.17431010583203377  1.0000
  Si  Si784     1.0  0.4101801974152489  0.14215740319638015  0.4854742658564765  1.0000
  O   O1807     1.0  0.26905257571214214  0.04923599091049349  0.855450216764727  1.0000
  O   O1808     1.0  0.060580623940713944  0.19613510953976832  0.5542374986858811  1.0000
  Si  Si785     1.0  0.22041596991387444  0.9207110034203694  0.6124606702617931  1.0000
  O   O1809     1.0  0.7985490960073596  0.43106830334838486  0.1148703426330531  1.0000
  O   O1810     1.0  0.779343617123595  0.8381806490446229  0.9201071349310371  1.0000
  Si  Si786     1.0  0.01735545852099399  0.7854733270977343  0.15628841276914776  1.0000
  O   O1811     1.0  0.2376595871613256  0.9772372065610726  0.7143430900922  1.0000
  O   O1812     1.0  0.29507367941150225  0.18569488948437618  0.857649016507925  1.0000
  Si  Si787     1.0  0.7838627032107914  0.5316228750542686  0.4477812121511164  1.0000
  O   O1813     1.0  0.9472115959414862  0.7190537930950125  0.49314833669943403  1.0000
  O   O1814     1.0  0.964269576877648  0.18109272703031112  0.5223276047975686  1.0000
  Si  Si788     1.0  0.7409373301900462  0.6805432210960083  0.5726605727889253  1.0000
  O   O1815     1.0  0.9437550301319299  0.5158432183767795  0.3110926689206234  1.0000
  O   O1816     1.0  0.7188185286539314  0.7092328304032751  0.3359043516360924  1.0000
  Si  Si789     1.0  0.934615547997483  0.5508557783023598  0.828685004076895  1.0000
  O   O1817     1.0  0.18664094018623195  0.36416403526923946  0.7693670911747815  1.0000
  O   O1818     1.0  0.9610669503287128  0.29417375106613436  0.15838190448820777  1.0000
  Si  Si790     1.0  0.1904423505315859  0.43269063843502736  0.7039149005285427  1.0000
  O   O1819     1.0  0.15561833588920285  0.3464301126384754  0.3460980876066937  1.0000
  O   O1820     1.0  0.2617570081568248  0.9775187579533664  0.9688523696669601  1.0000
  Si  Si791     1.0  0.8234133769915718  0.2999572518273537  0.3890573410883397  1.0000
  O   O1821     1.0  0.8248244901074656  0.8968027445894744  0.14567047059030605  1.0000
  O   O1822     1.0  0.8002374653026726  0.296704889657011  0.426740374228671  1.0000
  Si  Si792     1.0  0.7200461642255266  6.163545581758417e-05  0.11351977882014402  1.0000
  O   O1823     1.0  0.09886777009575225  0.5119297448370184  0.2192351574064635  1.0000
  O   O1824     1.0  0.1586105869329465  0.8869687993809641  0.36341639601134296  1.0000
  Si  Si793     1.0  0.9785621644711978  0.8479577067458085  0.112710294323397  1.0000
  O   O1825     1.0  0.9546325473225465  0.3594706181412733  0.4261398252587265  1.0000
  O   O1826     1.0  0.36422460338331664  0.08758892428226021  0.8268490984705414  1.0000
  Si  Si794     1.0  0.8725357327918645  0.3207553656760327  0.5590471497863232  1.0000
  O   O1827     1.0  0.1596590509941257  0.04584631334023429  0.9589481176992508  1.0000
  O   O1828     1.0  0.9423567690803579  0.9454851128148793  0.9709366313127278  1.0000
  Si  Si795     1.0  0.2645549503871778  0.8320635405801015  0.7009578232200402  1.0000
  O   O1829     1.0  0.22539744901997097  0.7484188644454967  0.18287909293121812  1.0000
  O   O1830     1.0  0.037776138439423596  0.23881193360170483  0.10958921109904221  1.0000
  Si  Si796     1.0  0.7668586052210623  0.5217994898411549  0.34387077571643904  1.0000
  O   O1831     1.0  0.7780099631135102  0.1618284426631768  0.6607200768903759  1.0000
  O   O1832     1.0  0.4600484056503341  0.24819940984945352  0.2924594462036658  1.0000
  Si  Si797     1.0  0.16460061164333198  0.9077231263447917  0.24606925943616834  1.0000
  O   O1833     1.0  0.3353888544327716  0.0015296208710147434  0.7002945467634831  1.0000
  O   O1834     1.0  0.02827791120114093  0.9886423723010155  0.21790433040389548  1.0000
  Si  Si798     1.0  0.5511027187525424  0.7797515007949591  0.3269884425176999  1.0000
  O   O1835     1.0  0.8564032883679129  0.9539307406955815  0.12001302438168167  1.0000
  O   O1836     1.0  0.283264567620576  0.9417444711029314  0.8947487319508741  1.0000
  Si  Si799     1.0  0.7191798542610935  0.9783209539164334  0.8008643346152632  1.0000
  O   O1837     1.0  0.6158050638088098  0.14073127420426232  0.9396056632898039  1.0000
  O   O1838     1.0  0.07309955373500973  0.1385477097096686  0.556743363377634  1.0000
  Si  Si800     1.0  0.6400926782429934  0.7467544177548802  0.2798376144500989  1.0000
  O   O1839     1.0  0.9043390769359108  0.7947221903469153  0.7122826134366146  1.0000
  O   O1840     1.0  0.02205786829438668  0.14589951254376357  0.7799112975343366  1.0000
  Si  Si801     1.0  0.41272088059584705  0.007585093647984119  0.2720113635942485  1.0000
  O   O1841     1.0  0.1175237232021972  0.15026092012376147  0.5622380392647677  1.0000
  O   O1842     1.0  0.743524603464605  0.8160168774398442  0.9106307280541733  1.0000
  Si  Si802     1.0  0.19228526047302974  0.15247808757475956  0.40187997985155666  1.0000
  O   O1843     1.0  0.2849939403015232  0.9133852391584849  0.40475952349113364  1.0000
  O   O1844     1.0  0.1852898549104044  0.6249312369940595  0.23415909181477945  1.0000
  Si  Si803     1.0  0.0726140980752453  0.4825722667163595  0.6858043008083804  1.0000
  O   O1845     1.0  0.6512619547338577  0.8197470649763708  0.8955234195061741  1.0000
  O   O1846     1.0  0.14444938366352417  0.08744611111012959  0.5899821058045621  1.0000
  Si  Si804     1.0  0.14941964045888798  0.07713276625429825  0.5314853708156676  1.0000
  O   O1847     1.0  0.7278868717394792  0.9268632339487477  0.031047557288127633  1.0000
  O   O1848     1.0  0.16563911035828613  0.701819231922343  0.8724265153174399  1.0000
  Si  Si805     1.0  0.28324457477900017  0.8562830717634642  0.47992905747862796  1.0000
  O   O1849     1.0  0.9365152043312612  0.19358497650750203  0.43479105298872484  1.0000
  O   O1850     1.0  0.5608401581830893  0.948037409686124  0.5834802595530555  1.0000
  Si  Si806     1.0  0.8518727697739558  0.520013259548986  0.69368805250458  1.0000
  O   O1851     1.0  0.28682035099964137  0.8654328432878231  0.9850082965295953  1.0000
  O   O1852     1.0  0.9026246611527741  0.9086660008872732  0.8639236778128421  1.0000
  Si  Si807     1.0  0.7414191789506336  0.5990605302007609  0.0036532697036831285  1.0000
  O   O1853     1.0  0.329268650620897  0.03113762032768632  0.42889162137418907  1.0000
  O   O1854     1.0  0.1406039460312401  0.04334212187881421  0.42343171710209604  1.0000
  Si  Si808     1.0  0.7592837353543976  0.0853108411431753  0.7599917394765453  1.0000
  O   O1855     1.0  0.10361794947273348  0.38883952667387356  0.3246968981277347  1.0000
  O   O1856     1.0  0.18774264945385555  0.2812954616796443  0.05398933641913932  1.0000
  Si  Si809     1.0  0.34666475744033287  0.018909438948043623  0.2855783998474196  1.0000
  O   O1857     1.0  0.3451618109597822  0.80563576255861  0.2840266398989596  1.0000
  O   O1858     1.0  0.017296043465266826  0.15150940741343003  0.581813826740515  1.0000
  Si  Si810     1.0  0.780158612624331  0.6103860639952603  0.5576547524029085  1.0000
  O   O1859     1.0  0.5663174987668  0.9318327645505063  0.3976347477376482  1.0000
  O   O1860     1.0  0.8122707368915555  0.11929394112208477  0.3946755862498314  1.0000
  Si  Si811     1.0  0.13552883783546954  0.1999829410861238  0.6546253457159704  1.0000
  O   O1861     1.0  0.8561186910541916  0.8991408402614478  0.48428555059965833  1.0000
  O   O1862     1.0  0.567550381260358  0.8312985483338884  0.8314468863696667  1.0000
  Si  Si812     1.0  0.016536074935829953  0.48774066229373747  0.36835546415493475  1.0000
  O   O1863     1.0  0.8933726622823781  0.5457592120854541  0.4626924417102069  1.0000
  O   O1864     1.0  0.20808176039495485  0.6026586442066019  0.916729066395531  1.0000
  Si  Si813     1.0  0.19837759561247192  0.24998228272498715  0.46585363464633966  1.0000
  O   O1865     1.0  0.3742105582899334  0.2241279856244664  0.30423219708913435  1.0000
  O   O1866     1.0  0.9423671784119387  0.680349165908804  0.8832943445554841  1.0000
  Si  Si814     1.0  0.2937808791318543  0.23944792350857766  0.7814898848728652  1.0000
  O   O1867     1.0  0.7673994471805514  0.09251651710537999  0.4521220064002409  1.0000
  O   O1868     1.0  0.6028049233091489  0.9906126530447227  0.5027162366853619  1.0000
  Si  Si815     1.0  0.7446674269163642  0.6761546143321094  0.34929208912548587  1.0000
  O   O1869     1.0  0.958726861954872  0.351468084911071  0.9248734482138332  1.0000
  O   O1870     1.0  0.13013467276738902  0.5565643231157529  0.4054956818915649  1.0000
  Si  Si816     1.0  0.7457256701632888  0.08992898544844792  0.5926485615293715  1.0000
  O   O1871     1.0  0.23221750501282223  0.4475917908393708  0.46628388867439446  1.0000
  O   O1872     1.0  0.9395505661568199  0.40355919244433885  0.0540062479794438  1.0000
  Si  Si817     1.0  0.3890031592362718  0.05392394152130399  0.8408433018946028  1.0000
  O   O1873     1.0  0.05677444491290049  0.32232876966960156  0.1718728874022707  1.0000
  O   O1874     1.0  0.743384450766975  0.06957001188426434  0.08134824004648138  1.0000
  Si  Si818     1.0  0.5235793845563919  0.07932811849182662  0.12700236082900684  1.0000
  O   O1875     1.0  0.7288950057102689  0.8754938395020915  0.03596957594010513  1.0000
  O   O1876     1.0  0.3275542931603414  0.8251317532134975  0.0786085694488075  1.0000
  Si  Si819     1.0  0.9722580369205408  0.6569920180497384  0.9162256054011314  1.0000
  O   O1877     1.0  0.11013668910566647  0.35735268869383685  0.7975792272887939  1.0000
  O   O1878     1.0  0.15035736181780354  0.8235170667200914  0.8545982503320712  1.0000
  Si  Si820     1.0  0.16579820870962605  0.4177680494415162  0.1880607490338313  1.0000
  O   O1879     1.0  0.8845805928219518  0.3111124187592929  0.1308723462754904  1.0000
  O   O1880     1.0  0.601521334831187  0.09511951162107755  0.38719287528651497  1.0000
  Si  Si821     1.0  0.26083371200296346  0.9699610292779864  0.5065054119517469  1.0000
  O   O1881     1.0  0.20490897969766494  0.06720352287708474  0.10546143074851047  1.0000
  O   O1882     1.0  0.21007633390813224  0.052282410389602595  0.739022823907158  1.0000
  Si  Si822     1.0  0.8156636666255628  0.008068356476815697  0.9890792547042377  1.0000
  O   O1883     1.0  0.08643038605711292  0.8700253205698932  0.006039738645113924  1.0000
  O   O1884     1.0  0.04906933689737285  0.7317359918691814  0.604880518379737  1.0000
  Si  Si823     1.0  0.09271095329485489  0.9634885415790875  0.5327824671888798  1.0000
  O   O1885     1.0  0.7118800627110756  0.11516895030810677  0.5958869848454401  1.0000
  O   O1886     1.0  0.48272706192928794  0.22348093692699963  0.6635806316445164  1.0000
  Si  Si824     1.0  0.8098238865194403  0.28120826914281105  0.7909471379591748  1.0000
  O   O1887     1.0  0.48129309694129185  0.8392827736948002  0.9397906587907598  1.0000
  O   O1888     1.0  0.7824529896248136  0.09092620114159208  0.057585240073231334  1.0000
  Si  Si825     1.0  0.3563123921748755  0.05837382443736306  0.10719702750155394  1.0000
  O   O1889     1.0  0.3475670144049279  0.8848290813036429  0.38794982674673734  1.0000
  O   O1890     1.0  0.15832726923805565  0.7708100776482041  0.7017421103544769  1.0000
  Si  Si826     1.0  0.8554822699401471  0.5200638097219422  0.18761220126129244  1.0000
  O   O1891     1.0  0.7459142837420578  0.23587578802635648  0.417740116575195  1.0000
  O   O1892     1.0  0.8714842542092225  0.4647889390585823  0.5912144185681049  1.0000
  Si  Si827     1.0  0.8259485359924923  0.21928471858825188  0.2659752283152104  1.0000
  O   O1893     1.0  0.9685257128406761  0.792221404024534  0.4979140736316369  1.0000
  O   O1894     1.0  0.991920034150976  0.11937367095997993  0.052692705373670816  1.0000
  Si  Si828     1.0  0.11058150173030631  0.4026978042404298  0.009285646780598013  1.0000
  O   O1895     1.0  0.8883349650862652  0.9456257910002253  0.4318084342249738  1.0000
  O   O1896     1.0  0.5379159758076327  0.8110459213435991  0.00014748785660081726  1.0000
  Si  Si829     1.0  0.5119080225000414  0.11850824169527244  0.5547395383891004  1.0000
  O   O1897     1.0  0.6169052422434117  0.18872358286471932  0.6974297004935661  1.0000
  O   O1898     1.0  0.5058905134710303  0.970551271724323  0.7175746693402135  1.0000
  Si  Si830     1.0  0.22148926441916789  0.8067574252479774  0.47724748052709326  1.0000
  O   O1899     1.0  0.7819227145303144  0.6823233914571566  0.7934864386585864  1.0000
  O   O1900     1.0  0.7958551331135474  0.7514646589861285  0.6538540393155182  1.0000
  Si  Si831     1.0  0.09344642830947196  0.965773800345069  0.6529352185118731  1.0000
  O   O1901     1.0  0.13434314114028634  0.2616983630559854  0.3485279978023316  1.0000
  O   O1902     1.0  0.9343969906152066  0.7314533428732721  0.7335567587541997  1.0000
  Si  Si832     1.0  0.8068714635754343  0.13034596514471491  0.6444412559316429  1.0000
  O   O1903     1.0  0.49373925165138643  0.07902727166694411  0.8851650052059433  1.0000
  O   O1904     1.0  0.03720730453261767  0.17797741982323073  0.06770988754558326  1.0000
  Si  Si833     1.0  0.0862487580127888  0.4211541957575766  0.11869538969316443  1.0000
  O   O1905     1.0  0.3417104078856009  0.03908014249417979  0.9755872143366361  1.0000
  O   O1906     1.0  0.4131249226056533  0.24225155884503352  0.29467239744351237  1.0000
  Si  Si834     1.0  0.1660972509592065  0.20801743059337371  0.057996658555057576  1.0000
  O   O1907     1.0  0.8143917553038763  0.6946541324320805  0.37767356502176797  1.0000
  O   O1908     1.0  0.11571443291466547  0.9847323379512988  0.43378489516098123  1.0000
  Si  Si835     1.0  0.14221056143957164  0.7787866740732581  0.49469973052322486  1.0000
  O   O1909     1.0  0.35688536146668026  0.8670698346094017  0.0977045794921694  1.0000
  O   O1910     1.0  0.43481309707959775  0.975280773255116  0.24128689814078322  1.0000
  Si  Si836     1.0  0.05578180373060512  0.1930713219633906  0.3572710391593079  1.0000
  O   O1911     1.0  0.6225534885745063  0.6924180160447152  0.34044203156661473  1.0000
  O   O1912     1.0  0.7456204485225865  0.06035586573294739  0.5729429555778922  1.0000
  Si  Si837     1.0  0.03215527734970434  0.7182202808530288  0.8492990127597843  1.0000
  O   O1913     1.0  0.6861371883005514  0.9175063401900729  0.9819450196397271  1.0000
  O   O1914     1.0  0.5168915728755086  0.8724365914888675  0.8738967787204815  1.0000
  Si  Si838     1.0  0.33432449955217897  0.9817271905468178  0.8377644582009582  1.0000
  O   O1915     1.0  0.9768115247847949  0.681083968865607  0.19752101455523385  1.0000
  O   O1916     1.0  0.2721876844866561  0.10743567276122849  0.11775490322647089  1.0000
  Si  Si839     1.0  0.6347354108077451  0.02617351454025255  0.5270108790430229  1.0000
  O   O1917     1.0  0.048878668943359495  0.783334561708884  0.784696166468601  1.0000
  O   O1918     1.0  0.5818057343310556  0.9867183777584838  0.3098651935457828  1.0000
  Si  Si840     1.0  0.05061049558907839  0.5943476211948537  0.18745705088778242  1.0000
  O   O1919     1.0  0.9030048463356072  0.9907924095724405  0.7622922755575443  1.0000
  O   O1920     1.0  0.7542398727322647  0.9320612078461803  0.9102131650044304  1.0000
  Si  Si841     1.0  0.949877391692189  0.5349862920779892  0.35138275065924646  1.0000
  O   O1921     1.0  0.7643681949565436  0.8914712162120213  0.8478763037307431  1.0000
  O   O1922     1.0  0.7322868873826672  0.8425800400102764  0.5679986524614294  1.0000
  Si  Si842     1.0  0.8822343371197525  0.4642908982085902  0.45363494058252013  1.0000
  O   O1923     1.0  0.9755927457238281  0.7793777679396047  0.6073676451611332  1.0000
  O   O1924     1.0  0.4933679713162466  0.17846531430109633  0.401385403098606  1.0000
  Si  Si843     1.0  0.5595368858199645  0.8776395119051074  0.7041917874730752  1.0000
  O   O1925     1.0  0.6821518093624508  0.1771415639939988  0.03649190629377524  1.0000
  O   O1926     1.0  0.0031409102929501245  0.17509691711704342  0.34579520573045425  1.0000
  Si  Si844     1.0  0.5082297264041457  0.7938890815823215  0.5028643040485046  1.0000
  O   O1927     1.0  0.7998575603154002  0.2188280225058849  0.3809108713236582  1.0000
  O   O1928     1.0  0.012013719065795549  0.07160975520066497  0.8784552942902332  1.0000
  Si  Si845     1.0  0.02900809730951966  0.7465296160068414  0.9544474857622623  1.0000
  O   O1929     1.0  0.4900291383766392  0.8241718229713122  0.4641803222438437  1.0000
  O   O1930     1.0  0.6457016613388776  0.17002537084695232  0.7968749358528261  1.0000
  Si  Si846     1.0  0.34133904116592056  0.19314864547476876  0.7150293494966913  1.0000
  O   O1931     1.0  0.07054842356699459  0.8573271957678753  0.4711282498156117  1.0000
  O   O1932     1.0  0.9714914063058486  0.4367049590323345  0.3728081535471043  1.0000
  Si  Si847     1.0  0.540413770830249  0.10553951488310313  0.8773495603052096  1.0000
  O   O1933     1.0  0.6000991715785973  0.8053166786797695  0.7446946652949543  1.0000
  O   O1934     1.0  0.8041362788910473  0.3490432633014343  0.2597205048688388  1.0000
  Si  Si848     1.0  0.5255354705599812  0.9516819621722138  0.257412896834603  1.0000
  O   O1935     1.0  0.16257220289490387  0.591306746681066  0.45742756091523673  1.0000
  O   O1936     1.0  0.3746652734406701  0.8477550230380329  0.27920976792482005  1.0000
  Si  Si849     1.0  0.11452396001141528  0.5265812495144846  0.2537006263326525  1.0000
  O   O1937     1.0  0.9905923979989407  0.862864603438258  0.516716827527566  1.0000
  O   O1938     1.0  0.32721553484570964  0.0886011269671725  0.084852013843191  1.0000
  Si  Si850     1.0  0.23850940520087938  0.09921278280765054  0.2594736197076628  1.0000
  O   O1939     1.0  0.6238913472145889  0.6866177069756824  0.5070997700053228  1.0000
  O   O1940     1.0  0.27482303199699876  0.9468582954484002  0.6416460624727516  1.0000
  Si  Si851     1.0  0.6958366681174595  0.06997779047018969  0.278531214747211  1.0000
  O   O1941     1.0  0.1390633035730393  0.9237116520136774  0.004233322263652419  1.0000
  O   O1942     1.0  0.08845421634766905  0.16650792947383253  0.37147813591140205  1.0000
  Si  Si852     1.0  0.5341486179707974  0.1667401317382766  0.9978848065518563  1.0000
  O   O1943     1.0  0.8591609658208582  0.36151022563618274  0.6941363054892903  1.0000
  O   O1944     1.0  0.13176979622332524  0.8440264212178773  0.5672973418138962  1.0000
  Si  Si853     1.0  0.8280603730462309  0.8428123991341919  0.43141069490941225  1.0000
  O   O1945     1.0  0.79140896757686  0.8599598624439141  0.4305583178285563  1.0000
  O   O1946     1.0  0.17722847196122904  0.10643066623461928  0.7841634842171504  1.0000
  Si  Si854     1.0  0.07818992800148451  0.5719201200004113  0.07621207762983521  1.0000
  O   O1947     1.0  0.8310430182859619  0.5097096675990204  0.1581972058578697  1.0000
  O   O1948     1.0  0.9798995214210087  0.6382740090631346  0.26202317153229016  1.0000
  Si  Si855     1.0  0.2535889282228966  0.9586470103897834  0.933183067101047  1.0000
  O   O1949     1.0  0.3546181633242364  0.2773477500789568  0.44432473378325693  1.0000
  O   O1950     1.0  0.13474331284810712  0.12412154667713882  0.41593498087445846  1.0000
  Si  Si856     1.0  0.7584341075092613  0.7092964739785445  0.7592738459580487  1.0000
  O   O1951     1.0  0.18783113992046271  0.5528718646736079  0.5373378214151212  1.0000
  O   O1952     1.0  0.014402558876577414  0.714222467003765  0.0804251047688356  1.0000
  Si  Si857     1.0  0.7420172304184759  0.9096872103694207  0.8945930328556293  1.0000
  O   O1953     1.0  0.10568719471073597  0.386578659410664  0.1334971168530499  1.0000
  O   O1954     1.0  0.4744111326370897  0.8759531758357283  0.4418926874780571  1.0000
  Si  Si858     1.0  0.6811070727560363  0.9556411977278761  0.8528996561426553  1.0000
  O   O1955     1.0  0.8064903757198999  0.04304685489938318  0.40860059671817306  1.0000
  O   O1956     1.0  0.650206177134721  0.9081711464480341  0.6171313268159404  1.0000
  Si  Si859     1.0  0.8493315927820153  0.7717585795296356  0.7797147372147547  1.0000
  O   O1957     1.0  0.7938094763777398  0.7853926411067427  0.2793528772148208  1.0000
  O   O1958     1.0  0.22820866472631873  0.08911907050904601  0.9194023296950221  1.0000
  Si  Si860     1.0  0.9152375890657658  0.9464540170410429  0.46544465021567955  1.0000
  O   O1959     1.0  0.8681715193052423  0.6435489884718248  0.8102409043261493  1.0000
  O   O1960     1.0  0.32985205243186705  0.2729623886355454  0.029911616268207555  1.0000
  Si  Si861     1.0  0.24295563114866858  0.10810726448347309  0.47248695551876957  1.0000
  O   O1961     1.0  0.8365295732524306  0.6603005292140095  0.27965556238378864  1.0000
  O   O1962     1.0  0.8924713888336308  0.7314443923209736  0.16888222171803527  1.0000
  Si  Si862     1.0  0.5460531444332944  0.9195947193764702  0.07555169541446442  1.0000
  O   O1963     1.0  0.5601742398970203  0.9952412428424724  0.8131469490267498  1.0000
  O   O1964     1.0  0.16535655230497143  0.18216928758033946  0.4283553004295542  1.0000
  Si  Si863     1.0  0.0038275670097003027  0.9993269171863711  0.8912467609296958  1.0000
  O   O1965     1.0  0.07078740397587943  0.5086650349665167  0.1498975677407343  1.0000
  O   O1966     1.0  0.46504621514783157  0.9642725799787694  0.7699402995606225  1.0000
  Si  Si864     1.0  0.025528571686857734  0.46708479732162417  0.8361575403338961  1.0000
  O   O1967     1.0  0.8252204680216243  0.5132268180141636  0.6977175327304637  1.0000
  O   O1968     1.0  0.9137236181321798  0.46016491049298625  0.43847235668960355  1.0000
  Si  Si865     1.0  0.5280851483465856  0.17035352473509252  0.5394028350562966  1.0000
  O   O1969     1.0  0.9499274932926159  0.3794620816555714  0.14487448841533704  1.0000
  O   O1970     1.0  0.43277522542242164  0.11336462183669861  0.7048389542460373  1.0000
  Si  Si866     1.0  0.8728172098600847  0.4144963891525797  0.5116261701877913  1.0000
  O   O1971     1.0  0.9460366591665249  0.9990611353874048  0.9945170122546474  1.0000
  O   O1972     1.0  0.8424150218015695  0.5248612935766523  0.06541416163356066  1.0000
  Si  Si867     1.0  0.5009173442839319  0.8798775790915505  0.31241936989286295  1.0000
  O   O1973     1.0  0.06336655361931438  0.14369433714473992  0.838364700140023  1.0000
  O   O1974     1.0  0.20030944980409224  0.9287401673138341  0.4497936439039654  1.0000
  Si  Si868     1.0  0.8005199157819102  0.1941509348911758  0.3382429190241551  1.0000
  O   O1975     1.0  0.6612692526188315  0.6788321571630321  0.5848739922671946  1.0000
  O   O1976     1.0  0.8396281510428649  0.8622447862471457  0.45854444701976366  1.0000
  Si  Si869     1.0  0.44608763922989264  0.8164142813281621  0.2680661102129369  1.0000
  O   O1977     1.0  0.9708520446570449  0.9654883821061563  0.3719220348953404  1.0000
  O   O1978     1.0  0.029498476249085602  0.1493178506694616  0.14982755923917848  1.0000
  Si  Si870     1.0  0.09680523011220207  0.23607933561030042  0.22267938137411503  1.0000
  O   O1979     1.0  0.05797681125802938  0.37213209946788095  0.5040744377406791  1.0000
  O   O1980     1.0  0.0802580128702065  0.73414766078502  0.1000314174409425  1.0000
  Si  Si871     1.0  0.17489928635274155  0.6478028326164005  0.42998015614196994  1.0000
  O   O1981     1.0  0.8829395610548395  0.6635367712139307  0.3147173606015421  1.0000
  O   O1982     1.0  0.8586779315557532  0.6868363448026923  0.5356896011971573  1.0000
  Si  Si872     1.0  0.22195419338127723  0.4494682923878561  0.11672243285044795  1.0000
  O   O1983     1.0  0.18272275718666842  0.13166103271234775  0.3687006599378499  1.0000
  O   O1984     1.0  0.39543085079804674  0.32282416864927443  0.6983039054220307  1.0000
  Si  Si873     1.0  0.23769993314477253  0.039601504187123514  0.6172396681108706  1.0000
  O   O1985     1.0  0.04600341890883662  0.47552454367517455  0.8721567279422323  1.0000
  O   O1986     1.0  0.640724345828606  0.8988970785004077  0.9978969793976807  1.0000
  Si  Si874     1.0  0.2801089825754107  0.7989860192850655  0.4930113112110108  1.0000
  O   O1987     1.0  0.9960349649826673  0.9594370940159862  0.22533569166335243  1.0000
  O   O1988     1.0  0.6715930113397137  0.12432346159871112  0.5310840525169667  1.0000
  Si  Si875     1.0  0.18652775228500576  0.3055879739034694  0.09528725262098918  1.0000
  O   O1989     1.0  0.09637715119953519  0.9117150804205992  0.35393628826285495  1.0000
  O   O1990     1.0  0.7616067535120653  0.7460217016481371  0.3594536354591213  1.0000
  Si  Si876     1.0  0.8544013149578453  0.08320828879994877  0.2745005002801624  1.0000
  O   O1991     1.0  0.13119646168034638  0.34717762119495466  0.47926127761117665  1.0000
  O   O1992     1.0  0.8455954255842965  0.43753007656027626  0.5506219909869354  1.0000
  Si  Si877     1.0  0.9896885907459169  0.2554787124743193  0.7539707091851213  1.0000
  O   O1993     1.0  0.06479366998674056  0.7878718926864678  0.4768790852379586  1.0000
  O   O1994     1.0  0.8427642283878874  0.5510063092221523  0.6611629569871874  1.0000
  Si  Si878     1.0  0.8649587931390674  0.7755001970866201  0.4715629296946138  1.0000
  O   O1995     1.0  0.044872532954458005  0.7488685779265639  0.34310132723410963  1.0000
  O   O1996     1.0  0.6669612731811907  0.9880353266764171  0.39200912817963934  1.0000
  Si  Si879     1.0  0.9592861462946232  0.6438053549935625  0.6920581896010859  1.0000
  O   O1997     1.0  0.47982830583729624  0.8683914427835376  0.18807960947143865  1.0000
  O   O1998     1.0  0.9718384017339777  0.9501714099666856  0.818149150951625  1.0000
  Si  Si880     1.0  0.8354861661333922  0.6821112342518222  0.9908600715241168  1.0000
  O   O1999     1.0  0.8197435721495904  0.6078371983950944  0.31986037275820606  1.0000
  O   O2000     1.0  0.17889366567097334  0.9022672714971561  0.08314268076027732  1.0000
  Si  Si881     1.0  0.2709458595081572  0.12093975241868166  0.8288486971485188  1.0000
  O   O2001     1.0  0.7139859207264713  0.6307343041577865  0.454800378581343  1.0000
  O   O2002     1.0  0.33893100921210967  0.0411337880601569  0.3349544135156841  1.0000
  Si  Si882     1.0  0.11402652417378076  0.9991301423439898  0.48924978601879804  1.0000
  O   O2003     1.0  0.22682628973085783  0.00754163295241841  0.10232279734872776  1.0000
  O   O2004     1.0  0.5898624800802247  0.130572784457436  0.18242266292725273  1.0000
  Si  Si883     1.0  0.06450351171282465  0.3416672223578378  0.875277513192134  1.0000
  O   O2005     1.0  0.4189223324789981  0.8839005744711375  0.9132495807997564  1.0000
  O   O2006     1.0  0.6435247355295252  0.018506266816028454  0.7516892539956036  1.0000
  Si  Si884     1.0  0.040143737482645075  0.22097608342094743  0.5990746466855459  1.0000
  O   O2007     1.0  0.3108175732567359  0.8503197127056954  0.7988565881959069  1.0000
  O   O2008     1.0  0.18994672945177168  0.4128833968072371  0.3651695255348298  1.0000
  Si  Si885     1.0  0.06546572735749287  0.24744941517233557  0.3276813652657886  1.0000
  O   O2009     1.0  0.25119248257061083  0.8747324523870755  0.06307576925411106  1.0000
  O   O2010     1.0  0.9068423575485794  0.30590752081421896  0.6809887493813845  1.0000
  Si  Si886     1.0  0.7238959484081032  0.569216344291436  0.40797830144307506  1.0000
  O   O2011     1.0  0.39952534964944914  0.045305161902204565  0.508995897111165  1.0000
  O   O2012     1.0  0.19617961123603983  0.7047176337951954  0.41179085912268976  1.0000
  Si  Si887     1.0  0.09858637482707179  0.8643280223540895  0.1344931540495811  1.0000
  O   O2013     1.0  0.1896272227381836  0.7962069770042847  0.9860335318008502  1.0000
  O   O2014     1.0  0.9189045746740689  0.42443802690557725  0.7996341787134026  1.0000
  Si  Si888     1.0  0.3519386281690301  0.8927932183857223  0.44623018906335504  1.0000
  O   O2015     1.0  0.5608031584279798  0.18515012573669593  0.2215575355293019  1.0000
  O   O2016     1.0  0.8635795844077854  0.7902322443650642  0.6744057919593144  1.0000
  Si  Si889     1.0  0.3415543322461278  0.1777951382557994  0.5189434875819725  1.0000
  O   O2017     1.0  0.15337581930359592  0.9856687596253239  0.6522793996362434  1.0000
  O   O2018     1.0  0.9660340279086639  0.20048953003593856  0.6145748491634755  1.0000
  Si  Si890     1.0  0.012986724290466158  0.9405135728797153  0.07763964066742082  1.0000
  O   O2019     1.0  0.07316940109606124  0.27049202601910705  0.7449114455861787  1.0000
  O   O2020     1.0  0.00593858206925132  0.20023177971803977  0.9799752249088016  1.0000
  Si  Si891     1.0  0.3053116370984224  0.1622262897444044  0.7110477620239962  1.0000
  O   O2021     1.0  0.2544071045589994  0.27057528949223614  0.5242961865702495  1.0000
  O   O2022     1.0  0.8581591878033227  0.47062238300088427  0.40652248955288334  1.0000
  Si  Si892     1.0  0.7237981027289275  0.8477583834075768  0.0446891446721696  1.0000
  O   O2023     1.0  0.9146656948258959  0.22888945924095214  0.5440145911535101  1.0000
  O   O2024     1.0  0.4064595659862524  0.16986985452950665  0.1600653973380475  1.0000
  Si  Si893     1.0  0.03529691462228737  0.619129978111377  0.7758593144916068  1.0000
  O   O2025     1.0  0.7883485513971041  0.036859048551691066  0.020516495923791945  1.0000
  O   O2026     1.0  0.14892798078753355  0.455988629341675  0.31432777405239565  1.0000
  Si  Si894     1.0  0.17833266899863814  0.9756816344178891  0.5328817695659651  1.0000
  O   O2027     1.0  0.4626861617153356  0.13324839655792295  0.8326612784542319  1.0000
  O   O2028     1.0  0.40207074047246183  0.28822432643495594  0.06624144831390981  1.0000
  Si  Si895     1.0  0.29824972691398893  0.9551803065331071  0.18070066800348303  1.0000
  O   O2029     1.0  0.748615457574382  0.8484644026925261  0.2792821152788496  1.0000
  O   O2030     1.0  0.7677398355829548  0.7995092859513062  0.37859227826404696  1.0000
  Si  Si896     1.0  0.4657855410478731  0.8711312708556702  0.6779168809311632  1.0000
  O   O2031     1.0  0.706304514719027  0.8386359309114493  0.7486522367003415  1.0000
  O   O2032     1.0  0.19649968083625996  0.832197660722603  0.4419696138811395  1.0000
  Si  Si897     1.0  0.43426309515121575  0.8423919472344025  0.3650594482920806  1.0000
  O   O2033     1.0  0.9311215296248694  0.636590512935987  0.5522473211889147  1.0000
  O   O2034     1.0  0.891438106407279  0.863413222256064  0.07208313685023153  1.0000
  Si  Si898     1.0  0.5992283260391567  0.05221837617013286  0.9376564310970866  1.0000
  O   O2035     1.0  0.18237718983384288  0.18660076937240058  0.2696476343434224  1.0000
  O   O2036     1.0  0.45545743350420387  0.9036026361828102  0.9031907836132949  1.0000
  Si  Si899     1.0  0.9989895640563771  0.9205865649486358  0.7951746319840896  1.0000
  O   O2037     1.0  0.46299115581320466  0.9718362892477538  0.6723693963347294  1.0000
  O   O2038     1.0  0.4353524169395212  0.8444214534908419  0.9878260696705802  1.0000
  Si  Si900     1.0  0.725615218317018  0.05219874954662694  0.9307857345646375  1.0000
  O   O2039     1.0  0.04626164716089176  0.5181775993031961  0.2422437729968936  1.0000
  O   O2040     1.0  0.1735117864115273  0.41985846298311563  0.7408772930382225  1.0000
  Si  Si901     1.0  0.19516121140722595  0.8581967678179244  0.48489239676125767  1.0000
  O   O2041     1.0  0.992074927950574  0.6024567986850377  0.09917585221295802  1.0000
  O   O2042     1.0  0.7386465921668706  0.737077441520351  0.7975209084413087  1.0000
  Si  Si902     1.0  0.8762714730016108  0.1735455664901912  0.5420205295256095  1.0000
  O   O2043     1.0  0.806320224612358  0.9520919778218432  0.5277499454802952  1.0000
  O   O2044     1.0  0.22040572984923731  0.5570704392055844  0.46258784429063454  1.0000
  Si  Si903     1.0  0.6789377997193906  0.16255579594817177  0.4054258984225312  1.0000
  O   O2045     1.0  0.42055469496997505  0.17429739028846966  0.2633431819639236  1.0000
  O   O2046     1.0  0.8487509275258887  0.21828527786209775  0.10595101388291975  1.0000
  Si  Si904     1.0  0.07325266714344493  0.3887091571700653  0.6914962533837652  1.0000
  O   O2047     1.0  0.8700237801925125  0.2524662011914352  0.49651899699551877  1.0000
  O   O2048     1.0  0.2589464433252582  0.8213743091608168  0.759245472602866  1.0000
  Si  Si905     1.0  0.49223498949772787  0.9500539217176084  0.41804750536346424  1.0000
  O   O2049     1.0  0.19650151132561486  0.3925188220116792  0.21015598967416915  1.0000
  O   O2050     1.0  0.8934757093369775  0.9929584815017978  0.9587036378372101  1.0000
  Si  Si906     1.0  0.5401400350012092  0.9448221791424639  0.7261112991834558  1.0000
  O   O2051     1.0  0.8975129368534335  0.9667202116517827  0.5167140938713479  1.0000
  O   O2052     1.0  0.8900198112037488  0.17741671119003924  0.6872551199631676  1.0000
  Si  Si907     1.0  0.15961411758151564  0.01898648049911004  0.140687467849723  1.0000
  O   O2053     1.0  0.05001636220277659  0.8586352525091524  0.9061089689941428  1.0000
  O   O2054     1.0  0.3252072871385521  0.12225052500592574  0.18457180917489724  1.0000
  Si  Si908     1.0  0.8532691813320297  0.5806725141186951  0.16044455287168957  1.0000
  O   O2055     1.0  0.10146922089345792  0.5788475130795356  0.8562605304086675  1.0000
  O   O2056     1.0  0.8624621888683879  0.5253459990194486  0.7495028438799011  1.0000
  Si  Si909     1.0  0.29064007270701386  0.11663698583328942  0.4168158378410493  1.0000
  O   O2057     1.0  0.9018494649490953  0.6486541027784941  0.016911043893279853  1.0000
  O   O2058     1.0  0.6873027464068245  0.8553761795514544  0.6362486024544544  1.0000
  Si  Si910     1.0  0.050504939958653135  0.5010402727570467  0.992358316250492  1.0000
  O   O2059     1.0  0.012323170985448224  0.578403474987639  0.45394785777706254  1.0000
  O   O2060     1.0  0.9699681889445126  0.11891127619498625  0.8351458232990903  1.0000
  Si  Si911     1.0  0.7643303729607273  0.8667233975362063  0.29514788948836856  1.0000
  O   O2061     1.0  0.8692086053405383  0.7483022661174069  0.736746487098152  1.0000
  O   O2062     1.0  0.7937712789341675  0.5564403725519135  0.440606497453943  1.0000
  Si  Si912     1.0  0.010889180582976126  0.1883631722679198  0.2926015503406192  1.0000
  O   O2063     1.0  0.7930201729551607  0.7817501957756865  0.09602794558177455  1.0000
  O   O2064     1.0  0.8119718502712766  0.47566511944109136  0.22191494232997394  1.0000
  Si  Si913     1.0  0.47354500996392573  0.20405125676863958  0.04868798686456493  1.0000
  O   O2065     1.0  0.9464181451681113  0.7790227786498785  0.4194047590489116  1.0000
  O   O2066     1.0  0.20590874797072564  0.04532888744310854  0.5986462423746489  1.0000
  Si  Si914     1.0  0.35733068498379394  0.12464172906603288  0.9648755266812735  1.0000
  O   O2067     1.0  0.41152693747733504  0.17176708841633223  0.7815409660513833  1.0000
  O   O2068     1.0  0.523074419748218  0.8834479020190449  0.1731338389585344  1.0000
  Si  Si915     1.0  0.4721225019112342  0.9814732052500867  0.7249186661359324  1.0000
  O   O2069     1.0  0.027467215856523855  0.883348216224383  0.32904206502796524  1.0000
  O   O2070     1.0  0.0008508381803320215  0.7764821692702929  0.41012393097431754  1.0000
  Si  Si916     1.0  0.9113583488446481  0.48855402949909504  0.9837548860103716  1.0000
  O   O2071     1.0  0.8509389326158588  0.1963090174731681  0.22564165006659834  1.0000
  O   O2072     1.0  0.04936391278564079  0.43889044615415945  0.8006217136458063  1.0000
  Si  Si917     1.0  0.926348682379193  0.4063805622390114  0.1092253328149733  1.0000
  O   O2073     1.0  0.6926389863162942  0.8064084672949111  0.35991596419876637  1.0000
  O   O2074     1.0  0.37475445720812556  0.16514916282778125  0.49487247086334424  1.0000
  Si  Si918     1.0  0.39160971857532223  0.03539092637120713  0.6434172185465347  1.0000
  O   O2075     1.0  0.4604373103795355  0.16648045674683984  0.4671592111919723  1.0000
  O   O2076     1.0  0.21962975181489142  0.5095439979903107  0.8097195669747242  1.0000
  Si  Si919     1.0  0.789291428597362  0.8210857184260383  0.7826097168563769  1.0000
  O   O2077     1.0  0.6690621841282418  0.8547053179177914  0.9299531502420194  1.0000
  O   O2078     1.0  0.14779362899824966  0.9616465915515238  0.064750734460902  1.0000
  Si  Si920     1.0  0.5544521470730714  0.8309772621323491  0.9927482409057525  1.0000
  O   O2079     1.0  0.9487385943857222  0.07486930950949953  0.9800527677300536  1.0000
  O   O2080     1.0  0.14076874214058255  0.8954458593604215  0.8544690375012726  1.0000
  Si  Si921     1.0  0.8611057391715097  0.6686012496290089  0.6626994354615645  1.0000
  O   O2081     1.0  0.8823125762205924  0.7269775414942048  0.06184386224057903  1.0000
  O   O2082     1.0  0.8283255250211403  0.6610010090189723  0.027176900985419746  1.0000
  Si  Si922     1.0  0.5062603026420591  0.9959727461104152  0.45600294462369795  1.0000
  O   O2083     1.0  0.8876766290943511  0.4904782881661428  0.18070288931769274  1.0000
  O   O2084     1.0  0.017784716915602527  0.0941053911628315  0.3124847826410797  1.0000
  Si  Si923     1.0  0.8091240348051826  0.5745660571609422  0.46150694477013654  1.0000
  O   O2085     1.0  0.7635270800623235  0.044398709114974434  0.460823688832612  1.0000
  O   O2086     1.0  0.6479676661700443  0.16389317522411165  0.09402688578605137  1.0000
  Si  Si924     1.0  0.09672470644836018  0.5649517347890729  0.8062084307446062  1.0000
  O   O2087     1.0  0.761472859780123  0.8912732600616803  0.25567259289557986  1.0000
  O   O2088     1.0  0.8122375135870216  0.9955053566675552  0.17156105482682474  1.0000
  Si  Si925     1.0  0.1907033946914574  0.981240903154489  0.23124191711873643  1.0000
  O   O2089     1.0  0.0988500185016056  0.3464209109961757  0.08636976703779878  1.0000
  O   O2090     1.0  0.5105350877458682  0.1904174132355689  0.49187806730750366  1.0000
  Si  Si926     1.0  0.6137365475086353  0.7838719379374116  0.695183706991752  1.0000
  O   O2091     1.0  0.2289712564098102  0.8962943649720013  0.9707068057819629  1.0000
  O   O2092     1.0  0.7471301780534  0.22344883428144177  0.565207106142495  1.0000
  Si  Si927     1.0  0.9586821518754092  0.5010137916668623  0.1603411503168053  1.0000
  O   O2093     1.0  0.507450077795627  0.028693854061642363  0.56180241205366  1.0000
  O   O2094     1.0  0.7586630053335921  0.6929741207793331  0.8887952938339887  1.0000
  Si  Si928     1.0  0.8696360013759666  0.6415138965717609  0.3077353730966964  1.0000
  O   O2095     1.0  0.8539846684497562  0.3142712226969311  0.71058776628525  1.0000
  O   O2096     1.0  0.9169438240198627  0.512258962250511  0.018082622061968083  1.0000
  Si  Si929     1.0  0.41647528412908336  0.18697380068616407  0.200662668718991  1.0000
  O   O2097     1.0  0.20442173566893557  0.31542769745701865  0.7129356436562687  1.0000
  O   O2098     1.0  0.7836257492549621  0.21312971257897342  0.644779087046473  1.0000
  Si  Si930     1.0  0.1580504121877779  0.42007361722034364  0.9719895181925595  1.0000
  O   O2099     1.0  0.04723798246934972  0.9978498391207286  0.040488911491199375  1.0000
  O   O2100     1.0  0.9602567689198185  0.3060574940581923  0.9763026659384083  1.0000
  Si  Si931     1.0  0.0741796692254696  0.43559168417561  0.7608858756123604  1.0000
  O   O2101     1.0  0.1741737117331712  0.9931696313909755  0.09578364754148908  1.0000
  O   O2102     1.0  0.0864973866408206  0.5522163761307488  0.584490222911449  1.0000
  Si  Si932     1.0  0.9794272040987134  0.7571742620452317  0.2726185770463192  1.0000
  O   O2103     1.0  0.9951063925385335  0.36437722787432253  0.7806452685786526  1.0000
  O   O2104     1.0  0.09386968582752209  0.4986300490992143  0.5594671927845156  1.0000
  Si  Si933     1.0  0.3670658010104323  0.9407154598237164  0.45157791683633247  1.0000
  O   O2105     1.0  0.8762178333913218  0.501943771563908  0.9868847785069967  1.0000
  O   O2106     1.0  0.26348674861694915  0.788776740051097  0.8386239553565481  1.0000
  Si  Si934     1.0  0.9795466983913097  0.03155680541364788  0.3163307889192785  1.0000
  O   O2107     1.0  0.08971937573110003  0.8570331620625318  0.7073307367934824  1.0000
  O   O2108     1.0  0.699389316697042  0.019127027526354253  0.5216181128203519  1.0000
  Si  Si935     1.0  0.6230053486911689  0.9832285341233972  0.9234705370898412  1.0000
  O   O2109     1.0  0.9585649860406109  0.02774881756382219  0.0824713786044791  1.0000
  O   O2110     1.0  0.8173568011250361  0.7945920103466206  0.7550479451204847  1.0000
  Si  Si936     1.0  0.4761858981538502  0.21524052901644916  0.2672987318730822  1.0000
  O   O2111     1.0  0.18360422505754  0.2665883337109365  0.8597428048724071  1.0000
  O   O2112     1.0  0.01922129535838868  0.586266561466249  0.9563575790449931  1.0000
  Si  Si937     1.0  0.7987764106095152  0.49530399608619385  0.02165808682198206  1.0000
  O   O2113     1.0  0.15944648430313216  0.4512639896187678  0.21118566495366212  1.0000
  O   O2114     1.0  0.28141813481863964  0.1841050937347441  0.34934672320967824  1.0000
  Si  Si938     1.0  0.09345034930240428  0.3411506574199689  0.7707741448616323  1.0000
  O   O2115     1.0  0.21432614757774793  0.20730816898170823  0.8806350842600267  1.0000
  O   O2116     1.0  0.30666186228111575  0.1434572110142306  0.6562747167584627  1.0000
  Si  Si939     1.0  0.21296722153543243  0.23550598437945783  0.8461737695346662  1.0000
  O   O2117     1.0  0.8649711638268541  0.0198445175992674  0.36983638511024053  1.0000
  O   O2118     1.0  0.575019761577149  0.889538396642888  0.5783006785435756  1.0000
  Si  Si940     1.0  0.5000322609132888  0.8285787928857451  0.5923499600817792  1.0000
  O   O2119     1.0  0.6007520766547273  0.17004235339720436  0.14424043257723465  1.0000
  O   O2120     1.0  0.4051892959408567  0.9237789618908923  0.8457484711546422  1.0000
  Si  Si941     1.0  0.6163230102416926  0.9622509846624863  0.09294401022992352  1.0000
  O   O2121     1.0  0.8010805948478597  0.04475199508050973  0.22509961726084127  1.0000
  O   O2122     1.0  0.9384984470586543  0.8923297953391578  0.5836565277579253  1.0000
  Si  Si942     1.0  0.37403150847967204  0.021304717103200883  0.0033836371408762526  1.0000
  O   O2123     1.0  0.8616584917406586  0.656993848388947  0.9529545847591013  1.0000
  O   O2124     1.0  0.09201271528030554  0.6395123301997631  0.521364851048908  1.0000
  Si  Si943     1.0  0.9646643441025629  0.2734862671573343  0.8622200800094627  1.0000
  O   O2125     1.0  0.74551418997499  0.08918292613869301  0.9935546287271052  1.0000
  O   O2126     1.0  0.6429093443311781  0.8034147750427425  0.18189910616868646  1.0000
  Si  Si944     1.0  0.09122952273227204  0.8316497861067317  0.4333702648290243  1.0000
  O   O2127     1.0  0.27361514152215305  0.894643235500449  0.738964330135523  1.0000
  O   O2128     1.0  0.04437698427041679  0.32438441289684466  0.7238087254002368  1.0000
  Si  Si945     1.0  0.6675074895790529  0.08944895631957968  0.16741028763519394  1.0000
  O   O2129     1.0  0.8185572052878191  0.7413402057623596  0.5615576593257822  1.0000
  O   O2130     1.0  0.9603030111642988  0.07744027458382204  0.8769952617600638  1.0000
